####################################################################### 
# 
# This file contains crystal structure data downloaded from the 
# Cambridge Structural Database (CSD) hosted by the Cambridge 
# Crystallographic Data Centre (CCDC).
# 
# Full information about CCDC data access policies and citation 
# guidelines are available at http://www.ccdc.cam.ac.uk/access/V1 
# 
# Audit and citation data items may have been added by the CCDC. 
# Please retain this information to preserve the provenance of 
# this file and to allow appropriate attribution of the data. 
# 
#######################################################################
@<TRIPOS>MOLECULE
1492902
   216   221     8     0     0
SMALL
USER_CHARGES
****
Generated from the CSD

@<TRIPOS>ATOM
     1 Pd1     -2.1334  12.0093  11.5778   Pd        1 RES1   2.0000
     2 N1       4.4880  22.2940  13.7067   N.ar      1 RES1   0.0000
     3 N2      -0.2722  11.2800  11.8549   N.ar      1 RES1   0.0000
     4 N3       3.0581  23.3627  11.5154   N.ar      1 RES1   0.0000
     5 N4      -1.7277  12.3263   9.6222   N.ar      1 RES1   0.0000
     6 C1       5.5602  23.0753  13.9544   C.ar      1 RES1   0.0000
     7 H1       5.4585  24.0208  13.9544   H         1 RES1   0.0000
     8 C2       6.8044  22.5274  14.2086   C.ar      1 RES1   0.0000
     9 H2       7.5522  23.0907  14.3740   H         1 RES1   0.0000
    10 C3       6.9539  21.1505  14.2199   C.ar      1 RES1   0.0000
    11 H3       7.7982  20.7637  14.4165   H         1 RES1   0.0000
    12 C4       5.8552  20.3331  13.9406   C.ar      1 RES1   0.0000
    13 C5       4.6317  20.9638  13.6801   C.ar      1 RES1   0.0000
    14 H5       3.8744  20.4268  13.4772   H         1 RES1   0.0000
    15 C6       5.9238  18.9106  13.9744   C.1       1 RES1   0.0000
    16 C7       5.9636  17.7099  14.0258   C.1       1 RES1   0.0000
    17 C8       6.0008  16.2786  14.1347   C.ar      1 RES1   0.0000
    18 C9       7.1169  15.6472  14.6996   C.ar      1 RES1   0.0000
    19 H9       7.8742  16.1589  14.9626   H         1 RES1   0.0000
    20 C10      7.1083  14.2637  14.8712   C.ar      1 RES1   0.0000
    21 H10      7.8534  13.8390  15.2770   H         1 RES1   0.0000
    22 C11      6.0297  13.5035  14.4566   C.ar      1 RES1   0.0000
    23 H11      6.0293  12.5649  14.5931   H         1 RES1   0.0000
    24 C12      4.9380  14.1240  13.8392   C.ar      1 RES1   0.0000
    25 C13      4.9184  15.5145  13.6914   C.ar      1 RES1   0.0000
    26 H13      4.1702  15.9378  13.2894   H         1 RES1   0.0000
    27 C14     -0.0224   9.9586  11.7564   C.ar      1 RES1   0.0000
    28 H14     -0.7282   9.3640  11.5310   H         1 RES1   0.0000
    29 C15      1.2473   9.4563  11.9793   C.ar      1 RES1   0.0000
    30 H15      1.4114   8.5252  11.8979   H         1 RES1   0.0000
    31 C16      2.2768  10.3155  12.3200   C.ar      1 RES1   0.0000
    32 H16      3.1555   9.9818  12.4640   H         1 RES1   0.0000
    33 C17      2.0077  11.6787  12.4503   C.ar      1 RES1   0.0000
    34 C18      0.7101  12.1255  12.1985   C.ar      1 RES1   0.0000
    35 H18      0.5166  13.0528  12.2724   H         1 RES1   0.0000
    36 C19      3.0202  12.5955  12.8911   C.1       1 RES1   0.0000
    37 C20      3.8661  13.3171  13.3244   C.1       1 RES1   0.0000
    38 C21      3.6933  24.4623  11.0713   C.ar      1 RES1   0.0000
    39 H21      3.9397  25.1404  11.6875   H         1 RES1   0.0000
    40 C22      3.9938  24.6175   9.7225   C.ar      1 RES1   0.0000
    41 H22      4.4423  25.4001   9.4219   H         1 RES1   0.0000
    42 C23      3.6387  23.6319   8.8233   C.ar      1 RES1   0.0000
    43 H23      3.8406  23.7260   7.8990   H         1 RES1   0.0000
    44 C24      2.9821  22.4955   9.2879   C.ar      1 RES1   0.0000
    45 C25      2.7136  22.3944  10.6518   C.ar      1 RES1   0.0000
    46 H25      2.2733  21.6201  10.9799   H         1 RES1   0.0000
    47 C26      2.5802  21.4152   8.4350   C.1       1 RES1   0.0000
    48 C27      2.2426  20.4794   7.7687   C.1       1 RES1   0.0000
    49 C28      1.7909  19.4083   6.9296   C.ar      1 RES1   0.0000
    50 C29      1.2636  18.2437   7.4732   C.ar      1 RES1   0.0000
    51 H29      1.2303  18.1384   8.4162   H         1 RES1   0.0000
    52 C30      0.7875  17.2347   6.6528   C.ar      1 RES1   0.0000
    53 C31      0.8267  17.3996   5.2564   C.ar      1 RES1   0.0000
    54 H31      0.4949  16.7135   4.6878   H         1 RES1   0.0000
    55 C32      1.3520  18.5635   4.7091   C.ar      1 RES1   0.0000
    56 H32      1.3739  18.6754   3.7660   H         1 RES1   0.0000
    57 C33      1.8440  19.5645   5.5332   C.ar      1 RES1   0.0000
    58 H33      2.2154  20.3531   5.1562   H         1 RES1   0.0000
    59 C34     -2.0440  11.4029   8.6980   C.ar      1 RES1   0.0000
    60 H34     -2.4733  10.6030   8.9748   H         1 RES1   0.0000
    61 C35     -1.7612  11.5843   7.3517   C.ar      1 RES1   0.0000
    62 H35     -1.9922  10.9154   6.7167   H         1 RES1   0.0000
    63 C36     -1.1403  12.7460   6.9446   C.ar      1 RES1   0.0000
    64 H36     -0.9197  12.8773   6.0291   H         1 RES1   0.0000
    65 C37     -0.8375  13.7326   7.8915   C.ar      1 RES1   0.0000
    66 C38     -1.1407  13.4740   9.2328   C.ar      1 RES1   0.0000
    67 H38     -0.9278  14.1268   9.8891   H         1 RES1   0.0000
    68 C39     -0.2437  14.9758   7.5220   C.1       1 RES1   0.0000
    69 C40      0.2405  16.0150   7.1663   C.1       1 RES1   0.0000
    70 Pd1      2.6499  23.0883  13.4705   Pd        1 RES1   2.0000
    71 N1      -3.9715  12.8036  11.3416   N.ar      1 RES1   0.0000
    72 N2       0.7888  23.8176  13.1934   N.ar      1 RES1   0.0000
    73 N3      -2.5415  11.7349  13.5328   N.ar      1 RES1   0.0000
    74 N4       2.2442  22.7713  15.4261   N.ar      1 RES1   0.0000
    75 C1      -5.0436  12.0223  11.0939   C.ar      1 RES1   0.0000
    76 H1      -4.9420  11.0768  11.0939   H         1 RES1   0.0000
    77 C2      -6.2879  12.5702  10.8396   C.ar      1 RES1   0.0000
    78 H2      -7.0356  12.0069  10.6743   H         1 RES1   0.0000
    79 C3      -6.4374  13.9471  10.8284   C.ar      1 RES1   0.0000
    80 H3      -7.2816  14.3339  10.6317   H         1 RES1   0.0000
    81 C4      -5.3386  14.7645  11.1077   C.ar      1 RES1   0.0000
    82 C5      -4.1152  14.1338  11.3682   C.ar      1 RES1   0.0000
    83 H5      -3.3578  14.6708  11.5711   H         1 RES1   0.0000
    84 C6      -5.4073  16.1870  11.0738   C.1       1 RES1   0.0000
    85 C7      -5.4471  17.3877  11.0225   C.1       1 RES1   0.0000
    86 C8      -5.4843  18.8190  10.9135   C.ar      1 RES1   0.0000
    87 C9      -6.6003  19.4504  10.3487   C.ar      1 RES1   0.0000
    88 H9      -7.3577  18.9387  10.0857   H         1 RES1   0.0000
    89 C10     -6.5918  20.8339  10.1771   C.ar      1 RES1   0.0000
    90 H10     -7.3368  21.2586   9.7713   H         1 RES1   0.0000
    91 C11     -5.5131  21.5941  10.5917   C.ar      1 RES1   0.0000
    92 H11     -5.5128  22.5327  10.4552   H         1 RES1   0.0000
    93 C12     -4.4214  20.9736  11.2091   C.ar      1 RES1   0.0000
    94 C13     -4.4018  19.5831  11.3569   C.ar      1 RES1   0.0000
    95 H13     -3.6537  19.1598  11.7589   H         1 RES1   0.0000
    96 C14      0.5389  25.1390  13.2919   C.ar      1 RES1   0.0000
    97 H14      1.2447  25.7336  13.5173   H         1 RES1   0.0000
    98 C15     -0.7307  25.6413  13.0689   C.ar      1 RES1   0.0000
    99 H15     -0.8948  26.5724  13.1504   H         1 RES1   0.0000
   100 C16     -1.7602  24.7821  12.7283   C.ar      1 RES1   0.0000
   101 H16     -2.6390  25.1158  12.5843   H         1 RES1   0.0000
   102 C17     -1.4911  23.4189  12.5980   C.ar      1 RES1   0.0000
   103 C18     -0.1935  22.9721  12.8498   C.ar      1 RES1   0.0000
   104 H18     -0.0001  22.0448  12.7759   H         1 RES1   0.0000
   105 C19     -2.5036  22.5021  12.1572   C.1       1 RES1   0.0000
   106 C20     -3.3496  21.7805  11.7239   C.1       1 RES1   0.0000
   107 C21     -3.1767  10.6353  13.9769   C.ar      1 RES1   0.0000
   108 H21     -3.4232   9.9572  13.3608   H         1 RES1   0.0000
   109 C22     -3.4773  10.4801  15.3258   C.ar      1 RES1   0.0000
   110 H22     -3.9258   9.6975  15.6264   H         1 RES1   0.0000
   111 C23     -3.1221  11.4657  16.2250   C.ar      1 RES1   0.0000
   112 H23     -3.3241  11.3716  17.1493   H         1 RES1   0.0000
   113 C24     -2.4655  12.6021  15.7604   C.ar      1 RES1   0.0000
   114 C25     -2.1971  12.7032  14.3965   C.ar      1 RES1   0.0000
   115 H25     -1.7567  13.4775  14.0684   H         1 RES1   0.0000
   116 C26     -2.0637  13.6824  16.6133   C.1       1 RES1   0.0000
   117 C27     -1.7261  14.6182  17.2796   C.1       1 RES1   0.0000
   118 C28     -1.2744  15.6893  18.1187   C.ar      1 RES1   0.0000
   119 C29     -0.7470  16.8539  17.5751   C.ar      1 RES1   0.0000
   120 H29     -0.7138  16.9592  16.6321   H         1 RES1   0.0000
   121 C30     -0.2710  17.8629  18.3955   C.ar      1 RES1   0.0000
   122 C31     -0.3101  17.6980  19.7919   C.ar      1 RES1   0.0000
   123 H31      0.0217  18.3841  20.3605   H         1 RES1   0.0000
   124 C32     -0.8355  16.5341  20.3392   C.ar      1 RES1   0.0000
   125 H32     -0.8573  16.4222  21.2823   H         1 RES1   0.0000
   126 C33     -1.3275  15.5331  19.5151   C.ar      1 RES1   0.0000
   127 H33     -1.6989  14.7445  19.8921   H         1 RES1   0.0000
   128 C34      2.5606  23.6947  16.3503   C.ar      1 RES1   0.0000
   129 H34      2.9899  24.4946  16.0735   H         1 RES1   0.0000
   130 C35      2.2778  23.5133  17.6966   C.ar      1 RES1   0.0000
   131 H35      2.5087  24.1822  18.3316   H         1 RES1   0.0000
   132 C36      1.6568  22.3516  18.1037   C.ar      1 RES1   0.0000
   133 H36      1.4363  22.2203  19.0192   H         1 RES1   0.0000
   134 C37      1.3541  21.3650  17.1568   C.ar      1 RES1   0.0000
   135 C38      1.6573  21.6236  15.8155   C.ar      1 RES1   0.0000
   136 H38      1.4443  20.9708  15.1592   H         1 RES1   0.0000
   137 C39      0.7603  20.1218  17.5263   C.1       1 RES1   0.0000
   138 C40      0.2760  19.0826  17.8820   C.1       1 RES1   0.0000
   139 C52     11.0940   9.2570   2.6752   C.3       2 RES2   0.0000
   140 S1      11.8060   9.4490   4.3444   S.o2      2 RES2   0.0000
   141 O1      10.7279   9.0601   5.2138   O.2       2 RES2   0.0000
   142 O2      12.9032   8.5105   4.3321   O.3       2 RES2  -1.0000
   143 O3      12.1868  10.8315   4.3922   O.2       2 RES2   0.0000
   144 F1      10.0492  10.0607   2.5123   F         2 RES2   0.0000
   145 F2      10.6950   8.0026   2.4510   F         2 RES2   0.0000
   146 F3      11.9753   9.5557   1.7384   F         2 RES2   0.0000
   147 C53      2.1180  11.1435   7.9466   C.3       3 RES3   0.0000
   148 S2       3.8863  11.3365   8.2575   S.o2      3 RES3   0.0000
   149 O4       4.0117  12.7201   8.6517   O.3       3 RES3  -1.0000
   150 O5       4.1403  10.4314   9.3430   O.2       3 RES3   0.0000
   151 O6       4.4822  11.0312   6.9822   O.2       3 RES3   0.0000
   152 F4       1.3732  11.4738   8.9999   F         3 RES3   0.0000
   153 F5       1.8010   9.9045   7.6034   F         3 RES3   0.0000
   154 F6       1.7449  11.9542   6.9484   F         3 RES3   0.0000
   155 O9       1.3357  20.0179  12.8628   O.2       4 RES4   0.0000
   156 C41     -0.0943  18.6147  11.5961   C.ar      4 RES4   0.0000
   157 C42     -0.4455  19.6322  10.7307   C.ar      4 RES4   0.0000
   158 H42     -0.0590  20.4935  10.8447   H         4 RES4   0.0000
   159 C43     -1.3665  19.4248   9.6787   C.ar      4 RES4   0.0000
   160 C44     -1.7734  20.4724   8.8233   C.ar      4 RES4   0.0000
   161 H44     -1.4129  21.3429   8.9385   H         4 RES4   0.0000
   162 C45     -2.6824  20.2369   7.8301   C.ar      4 RES4   0.0000
   163 H45     -2.9588  20.9498   7.2678   H         4 RES4   0.0000
   164 C46     -3.2142  18.9436   7.6310   C.ar      4 RES4   0.0000
   165 H46     -3.8340  18.7948   6.9259   H         4 RES4   0.0000
   166 C47     -2.8515  17.9005   8.4388   C.ar      4 RES4   0.0000
   167 H47     -3.2139  17.0329   8.2960   H         4 RES4   0.0000
   168 C48     -1.9247  18.1255   9.4946   C.ar      4 RES4   0.0000
   169 C49     -1.5519  17.0957  10.3913   C.ar      4 RES4   0.0000
   170 H49     -1.9225  16.2291  10.2786   H         4 RES4   0.0000
   171 C50     -0.6649  17.3158  11.4270   C.ar      4 RES4   0.0000
   172 C51      0.8532  18.8972  12.7007   C.2       4 RES4   0.0000
   173 O9      -0.8192  15.0797  12.1855   O.2       4 RES4   0.0000
   174 C41      0.6108  16.4829  13.4522   C.ar      4 RES4   0.0000
   175 C42      0.9621  15.4654  14.3176   C.ar      4 RES4   0.0000
   176 H42      0.5755  14.6041  14.2036   H         4 RES4   0.0000
   177 C43      1.8830  15.6728  15.3696   C.ar      4 RES4   0.0000
   178 C44      2.2900  14.6252  16.2250   C.ar      4 RES4   0.0000
   179 H44      1.9294  13.7547  16.1098   H         4 RES4   0.0000
   180 C45      3.1989  14.8607  17.2182   C.ar      4 RES4   0.0000
   181 H45      3.4754  14.1478  17.7805   H         4 RES4   0.0000
   182 C46      3.7308  16.1540  17.4173   C.ar      4 RES4   0.0000
   183 H46      4.3506  16.3028  18.1224   H         4 RES4   0.0000
   184 C47      3.3680  17.1971  16.6095   C.ar      4 RES4   0.0000
   185 H47      3.7304  18.0647  16.7523   H         4 RES4   0.0000
   186 C48      2.4413  16.9721  15.5537   C.ar      4 RES4   0.0000
   187 C49      2.0684  18.0019  14.6570   C.ar      4 RES4   0.0000
   188 H49      2.4391  18.8685  14.7697   H         4 RES4   0.0000
   189 C50      1.1814  17.7818  13.6213   C.ar      4 RES4   0.0000
   190 C51     -0.3366  16.2004  12.3476   C.2       4 RES4   0.0000
   191 N5       3.1153  17.4168  10.8522   N.1       5 RES5   0.0000
   192 C54      2.7758  16.3776  10.5290   C.1       5 RES5   0.0000
   193 C55      2.3408  15.0663  10.1258   C.3       5 RES5   0.0000
   194 H55A     1.5918  15.1481   9.4983   H         5 RES5   0.0000
   195 H55B     2.0497  14.5620  10.9148   H         5 RES5   0.0000
   196 H55C     3.0806  14.5936   9.6912   H         5 RES5   0.0000
   197 N6      -0.1081  23.4641   9.6323   N.1       6 RES6   0.0000
   198 C56     -0.4132  24.2472   8.8809   C.1       6 RES6   0.0000
   199 C57     -0.8038  25.2222   7.8614   C.3       6 RES6   0.0000
   200 H57A    -0.2288  25.1194   7.0736   H         6 RES6   0.0000
   201 H57B    -0.7043  26.1302   8.2208   H         6 RES6   0.0000
   202 H57C    -1.7376  25.0702   7.6059   H         6 RES6   0.0000
   203 N7       8.6924  14.5395   8.1996   N.1       7 RES7   0.0000
   204 C58      8.0140  13.8025   7.6698   C.1       7 RES7   0.0000
   205 C59      7.1674  12.8555   6.9872   C.3       7 RES7   0.0000
   206 H59A     6.9137  13.2178   6.1118   H         7 RES7   0.0000
   207 H59B     6.3623  12.6913   7.5195   H         7 RES7   0.0000
   208 H59C     7.6532  12.0139   6.8632   H         7 RES7   0.0000
   209 C53A?    1.9824  10.4556   8.0843   C.3       8 RES8   0.0000
   210 S2A?     3.4858  11.4629   8.1870   S.3       8 RES8   0.0000
   211 O4A?     3.0546  12.7896   8.0029   O.3       8 RES8   0.0000
   212 O5A?     3.8890  11.1645   9.5697   O.3       8 RES8   0.0000
   213 O6A?     4.3603  10.8908   7.1989   O.3       8 RES8   0.0000
   214 F4A?     1.0893  10.8662   8.9673   F         8 RES8   0.0000
   215 F5A?     2.2350   9.1815   8.3248   F         8 RES8   0.0000
   216 F6A?     1.4912  10.5363   6.8720   F         8 RES8   0.0000
@<TRIPOS>BOND
     1     1     3    1
     2     1     5    1
     3     1    71    1
     4     1    73    1
     5     2     6   ar
     6     2    13   ar
     7     2    70    1
     8     3    27   ar
     9     3    34   ar
    10     4    38   ar
    11     4    45   ar
    12     4    70    1
    13     5    59   ar
    14     5    66   ar
    15     6     7    1
    16     6     8   ar
    17     8     9    1
    18     8    10   ar
    19    10    11    1
    20    10    12   ar
    21    12    13   ar
    22    12    15    1
    23    13    14    1
    24    15    16    3
    25    16    17    1
    26    17    18   ar
    27    17    25   ar
    28    18    19    1
    29    18    20   ar
    30    20    21    1
    31    20    22   ar
    32    22    23    1
    33    22    24   ar
    34    24    25   ar
    35    24    37    1
    36    25    26    1
    37    27    28    1
    38    27    29   ar
    39    29    30    1
    40    29    31   ar
    41    31    32    1
    42    31    33   ar
    43    33    34   ar
    44    33    36    1
    45    34    35    1
    46    36    37    3
    47    38    39    1
    48    38    40   ar
    49    40    41    1
    50    40    42   ar
    51    42    43    1
    52    42    44   ar
    53    44    45   ar
    54    44    47    1
    55    45    46    1
    56    47    48    3
    57    48    49    1
    58    49    50   ar
    59    49    57   ar
    60    50    51    1
    61    50    52   ar
    62    52    53   ar
    63    52    69    1
    64    53    54    1
    65    53    55   ar
    66    55    56    1
    67    55    57   ar
    68    57    58    1
    69    59    60    1
    70    59    61   ar
    71    61    62    1
    72    61    63   ar
    73    63    64    1
    74    63    65   ar
    75    65    66   ar
    76    65    68    1
    77    66    67    1
    78    68    69    3
    79    70    72    1
    80    70    74    1
    81    71    75   ar
    82    71    82   ar
    83    72    96   ar
    84    72   103   ar
    85    73   107   ar
    86    73   114   ar
    87    74   128   ar
    88    74   135   ar
    89    75    76    1
    90    75    77   ar
    91    77    78    1
    92    77    79   ar
    93    79    80    1
    94    79    81   ar
    95    81    82   ar
    96    81    84    1
    97    82    83    1
    98    84    85    3
    99    85    86    1
   100    86    87   ar
   101    86    94   ar
   102    87    88    1
   103    87    89   ar
   104    89    90    1
   105    89    91   ar
   106    91    92    1
   107    91    93   ar
   108    93    94   ar
   109    93   106    1
   110    94    95    1
   111    96    97    1
   112    96    98   ar
   113    98    99    1
   114    98   100   ar
   115   100   101    1
   116   100   102   ar
   117   102   103   ar
   118   102   105    1
   119   103   104    1
   120   105   106    3
   121   107   108    1
   122   107   109   ar
   123   109   110    1
   124   109   111   ar
   125   111   112    1
   126   111   113   ar
   127   113   114   ar
   128   113   116    1
   129   114   115    1
   130   116   117    3
   131   117   118    1
   132   118   119   ar
   133   118   126   ar
   134   119   120    1
   135   119   121   ar
   136   121   122   ar
   137   121   138    1
   138   122   123    1
   139   122   124   ar
   140   124   125    1
   141   124   126   ar
   142   126   127    1
   143   128   129    1
   144   128   130   ar
   145   130   131    1
   146   130   132   ar
   147   132   133    1
   148   132   134   ar
   149   134   135   ar
   150   134   137    1
   151   135   136    1
   152   137   138    3
   153   139   140    1
   154   139   144    1
   155   139   145    1
   156   139   146    1
   157   140   141    2
   158   140   142    1
   159   140   143    2
   160   147   148    1
   161   147   152    1
   162   147   153    1
   163   147   154    1
   164   148   149    1
   165   148   150    2
   166   148   151    2
   167   155   172    2
   168   156   157   ar
   169   156   171   ar
   170   156   172    1
   171   157   158    1
   172   157   159   ar
   173   159   160   ar
   174   159   168   ar
   175   160   161    1
   176   160   162   ar
   177   162   163    1
   178   162   164   ar
   179   164   165    1
   180   164   166   ar
   181   166   167    1
   182   166   168   ar
   183   168   169   ar
   184   169   170    1
   185   169   171   ar
   186   171   190    1
   187   172   189    1
   188   173   190    2
   189   174   175   ar
   190   174   189   ar
   191   174   190    1
   192   175   176    1
   193   175   177   ar
   194   177   178   ar
   195   177   186   ar
   196   178   179    1
   197   178   180   ar
   198   180   181    1
   199   180   182   ar
   200   182   183    1
   201   182   184   ar
   202   184   185    1
   203   184   186   ar
   204   186   187   ar
   205   187   188    1
   206   187   189   ar
   207   191   192    3
   208   192   193    1
   209   193   194    1
   210   193   195    1
   211   193   196    1
   212   197   198    3
   213   198   199    1
   214   199   200    1
   215   199   201    1
   216   199   202    1
   217   203   204    3
   218   204   205    1
   219   205   206    1
   220   205   207    1
   221   205   208    1
@<TRIPOS>SUBSTRUCTURE
     1 RES1        1 GROUP             0 ****  ****    0  
     2 RES2      139 GROUP             0 ****  ****    0  
     3 RES3      147 GROUP             0 ****  ****    0  
     4 RES4      155 GROUP             0 ****  ****    0  
     5 RES5      191 GROUP             0 ****  ****    0  
     6 RES6      197 GROUP             0 ****  ****    0  
     7 RES7      203 GROUP             0 ****  ****    0  
     8 RES8      209 GROUP             0 ****  ****    0  
@<TRIPOS>CRYSIN
   12.7015   35.0976   13.9274   90.0000  115.9410   90.0000    14     1
