####################################################################### 
# 
# This file contains crystal structure data downloaded from the 
# Cambridge Structural Database (CSD) hosted by the Cambridge 
# Crystallographic Data Centre (CCDC).
# 
# Full information about CCDC data access policies and citation 
# guidelines are available at http://www.ccdc.cam.ac.uk/access/V1 
# 
# Audit and citation data items may have been added by the CCDC. 
# Please retain this information to preserve the provenance of 
# this file and to allow appropriate attribution of the data. 
# 
#######################################################################
@<TRIPOS>MOLECULE
100947
   339   347    12     0     0
SMALL
USER_CHARGES
****
Generated from the CSD

@<TRIPOS>ATOM
     1 Fe1    -20.3780 -27.8982 -17.7538   Fe        1 RES1  -3.0000
     2 Fe2    -16.1008 -16.1008 -16.1008   Fe        1 RES1  -3.0000
     3 O1     -21.3946 -26.5039 -16.6961   O.3       1 RES1   0.0000
     4 O2     -20.1795 -28.6587 -15.9050   O.3       1 RES1   0.0000
     5 O3     -23.1254 -23.8684 -13.9382   O.2       1 RES1   0.0000
     6 O4     -26.7880 -23.6324 -21.8841   O.2       1 RES1   0.0000
     7 O5     -21.8535 -29.2225 -18.1909   O.3       1 RES1   0.0000
     8 O6     -20.9925 -27.1726 -19.5545   O.3       1 RES1   0.0000
     9 O7     -18.6935 -26.7749 -17.9330   O.3       1 RES1   0.0000
    10 O8     -19.1437 -29.3055 -18.4356   O.3       1 RES1   0.0000
    11 O9     -14.9653 -25.0179 -19.0038   O.2       1 RES1   0.0000
    12 O10    -19.9828 -19.9042 -13.1252   O.2       1 RES1   0.0000
    13 O11    -16.6873 -15.0964 -14.4976   O.3       1 RES1   0.0000
    14 O12    -17.3823 -17.4391 -15.3805   O.3       1 RES1   0.0000
    15 N1     -23.1997 -24.6770 -16.0536   N.am      1 RES1   0.0000
    16 H1     -22.8588 -25.2932 -16.5781   H         1 RES1   0.0000
    17 N2     -26.0144 -21.8710 -20.7084   N.am      1 RES1   0.0000
    18 H2     -26.0800 -21.0100 -20.5379   H         1 RES1   0.0000
    19 N3     -17.0064 -24.7338 -17.9767   N.am      1 RES1   0.0000
    20 H3     -17.7975 -25.1097 -17.8893   H         1 RES1   0.0000
    21 N4     -18.7110 -19.6638 -14.9784   N.am      1 RES1   0.0000
    22 H4     -18.2083 -19.1087 -15.4417   H         1 RES1   0.0000
    23 C1     -21.3902 -26.7312 -15.3892   C.ar      1 RES1   0.0000
    24 C2     -20.7127 -27.9025 -14.9522   C.ar      1 RES1   0.0000
    25 C3     -20.7084 -28.2304 -13.6278   C.ar      1 RES1   0.0000
    26 H5     -20.2800 -29.0302 -13.3394   H         1 RES1   0.0000
    27 C4     -21.3115 -27.4130 -12.7100   C.ar      1 RES1   0.0000
    28 H6     -21.2853 -27.6578 -11.7878   H         1 RES1   0.0000
    29 C5     -21.9234 -26.3072 -13.0597   C.ar      1 RES1   0.0000
    30 H7     -22.3212 -25.7653 -12.3866   H         1 RES1   0.0000
    31 C6     -22.0065 -25.8964 -14.4277   C.ar      1 RES1   0.0000
    32 C7     -22.8063 -24.7119 -14.7992   C.2       1 RES1   0.0000
    33 C8     -24.1000 -23.7810 -16.6655   C.ar      1 RES1   0.0000
    34 C9     -25.0966 -23.1603 -15.9312   C.ar      1 RES1   0.0000
    35 H8     -25.1403 -23.3002 -14.9915   H         1 RES1   0.0000
    36 C10    -26.0406 -22.3299 -16.5344   C.ar      1 RES1   0.0000
    37 H9     -26.7268 -21.9191 -16.0230   H         1 RES1   0.0000
    38 C11    -25.9620 -22.1070 -17.9111   C.ar      1 RES1   0.0000
    39 H10    -26.5739 -21.5082 -18.3220   H         1 RES1   0.0000
    40 C12    -25.0135 -22.7408 -18.6716   C.ar      1 RES1   0.0000
    41 C13    -24.0432 -23.5450 -18.0379   C.ar      1 RES1   0.0000
    42 C14    -23.0161 -24.1525 -18.8202   C.ar      1 RES1   0.0000
    43 H11    -22.3168 -24.6507 -18.4050   H         1 RES1   0.0000
    44 C15    -23.0598 -24.0083 -20.1664   C.ar      1 RES1   0.0000
    45 H12    -22.3780 -24.4278 -20.6778   H         1 RES1   0.0000
    46 C16    -24.0607 -23.2609 -20.8701   C.ar      1 RES1   0.0000
    47 H13    -24.0738 -23.2084 -21.8185   H         1 RES1   0.0000
    48 C17    -25.0135 -22.6227 -20.0746   C.ar      1 RES1   0.0000
    49 C18    -26.8492 -22.4261 -21.5563   C.2       1 RES1   0.0000
    50 C19    -27.9506 -21.5607 -22.0895   C.ar      1 RES1   0.0000
    51 C20    -28.9209 -22.1157 -22.8850   C.ar      1 RES1   0.0000
    52 H14    -28.8466 -23.0336 -23.1254   H         1 RES1   0.0000
    53 C21    -29.9568 -21.4208 -23.3264   C.ar      1 RES1   0.0000
    54 H15    -30.6080 -21.8404 -23.8771   H         1 RES1   0.0000
    55 C22    -30.1185 -19.9960 -22.9768   C.ar      1 RES1   0.0000
    56 H16    -30.8790 -19.5064 -23.2740   H         1 RES1   0.0000
    57 C23    -22.2381 -29.1744 -19.3928   C.ar      1 RES1   0.0000
    58 C24    -21.7748 -28.0293 -20.1926   C.ar      1 RES1   0.0000
    59 C25    -17.6664 -27.4305 -18.4749   C.ar      1 RES1   0.0000
    60 C26    -17.9330 -28.8597 -18.7110   C.ar      1 RES1   0.0000
    61 C27    -16.8928 -29.6377 -19.1568   C.ar      1 RES1   0.0000
    62 H17    -17.0195 -30.5687 -19.2792   H         1 RES1   0.0000
    63 C28    -15.5990 -29.0477 -19.4496   C.ar      1 RES1   0.0000
    64 H18    -14.8953 -29.5896 -19.7905   H         1 RES1   0.0000
    65 C29    -15.3892 -27.7146 -19.2355   C.ar      1 RES1   0.0000
    66 H19    -14.5413 -27.3256 -19.4146   H         1 RES1   0.0000
    67 C30    -16.4163 -26.9454 -18.7678   C.ar      1 RES1   0.0000
    68 C31    -16.0448 -25.4637 -18.5886   C.2       1 RES1   0.0000
    69 C32    -16.8534 -23.4532 -17.4784   C.ar      1 RES1   0.0000
    70 C33    -15.5947 -22.7670 -17.6096   C.ar      1 RES1   0.0000
    71 H20    -14.8648 -23.1560 -18.0772   H         1 RES1   0.0000
    72 C34    -15.4766 -21.4208 -16.9845   C.ar      1 RES1   0.0000
    73 H21    -14.6462 -20.9619 -17.0457   H         1 RES1   0.0000
    74 C35    -16.5300 -20.8045 -16.3115   C.ar      1 RES1   0.0000
    75 H22    -16.4295 -19.9435 -15.9225   H         1 RES1   0.0000
    76 C36    -17.8062 -21.5344 -16.2284   C.ar      1 RES1   0.0000
    77 C37    -17.9767 -22.8151 -16.8228   C.ar      1 RES1   0.0000
    78 C38    -19.2092 -23.4357 -16.7485   C.ar      1 RES1   0.0000
    79 H23    -19.3141 -24.3011 -17.1244   H         1 RES1   0.0000
    80 C39    -20.2713 -22.8369 -16.1585   C.ar      1 RES1   0.0000
    81 H24    -21.1105 -23.2871 -16.1323   H         1 RES1   0.0000
    82 C40    -20.1402 -21.5607 -15.5772   C.ar      1 RES1   0.0000
    83 H25    -20.9094 -21.1323 -15.2144   H         1 RES1   0.0000
    84 C41    -18.8945 -20.9051 -15.5247   C.ar      1 RES1   0.0000
    85 C42    -19.2005 -19.1830 -13.8158   C.2       1 RES1   0.0000
    86 C43    -18.8028 -17.8980 -13.4093   C.ar      1 RES1   0.0000
    87 C44    -19.2442 -17.3823 -12.1637   C.ar      1 RES1   0.0000
    88 H26    -19.8299 -17.9024 -11.6217   H         1 RES1   0.0000
    89 C45    -18.8465 -16.1585 -11.7353   C.ar      1 RES1   0.0000
    90 H27    -19.1480 -15.8394 -10.8918   H         1 RES1   0.0000
    91 C46    -17.9985 -15.3543 -12.5133   C.ar      1 RES1   0.0000
    92 H28    -17.7363 -14.4976 -12.1943   H         1 RES1   0.0000
    93 C47    -17.5484 -15.7870 -13.7109   C.ar      1 RES1   0.0000
    94 C48    -17.9548 -17.0763 -14.1742   C.ar      1 RES1   0.0000
    95 C22D   -22.9768 -30.1185 -19.9960   C.ar      1 RES1   0.0000
    96 C21D   -23.3264 -29.9568 -21.4208   C.ar      1 RES1   0.0000
    97 C20D   -22.8850 -28.9209 -22.1157   C.ar      1 RES1   0.0000
    98 C19D   -22.0895 -27.9506 -21.5607   C.ar      1 RES1   0.0000
    99 C18D   -21.5563 -26.8492 -22.4261   C.2       1 RES1   0.0000
   100 O4D    -21.8841 -26.7880 -23.6324   O.2       1 RES1   0.0000
   101 N2D    -20.7084 -26.0144 -21.8710   N.am      1 RES1   0.0000
   102 H2D    -20.5379 -26.0800 -21.0100   H         1 RES1   0.0000
   103 C17D   -20.0746 -25.0135 -22.6227   C.ar      1 RES1   0.0000
   104 C12D   -18.6716 -25.0135 -22.7408   C.ar      1 RES1   0.0000
   105 C11D   -17.9111 -25.9620 -22.1070   C.ar      1 RES1   0.0000
   106 C10D   -16.5344 -26.0406 -22.3299   C.ar      1 RES1   0.0000
   107 C9D    -15.9312 -25.0966 -23.1603   C.ar      1 RES1   0.0000
   108 C8D    -16.6655 -24.1000 -23.7810   C.ar      1 RES1   0.0000
   109 N1D    -16.0536 -23.1997 -24.6770   N.am      1 RES1   0.0000
   110 H1D    -16.5781 -22.8588 -25.2932   H         1 RES1   0.0000
   111 C7D    -14.7992 -22.8063 -24.7119   C.2       1 RES1   0.0000
   112 O3D    -13.9382 -23.1254 -23.8684   O.2       1 RES1   0.0000
   113 C6D    -14.4277 -22.0065 -25.8964   C.ar      1 RES1   0.0000
   114 C1D    -15.3892 -21.3902 -26.7312   C.ar      1 RES1   0.0000
   115 O1D    -16.6961 -21.3946 -26.5039   O.3       1 RES1   0.0000
   116 Fe1D   -17.7538 -20.3780 -27.8982   Fe        1 RES1  -3.0000
   117 O2D    -15.9050 -20.1795 -28.6587   O.3       1 RES1   0.0000
   118 C2D    -14.9522 -20.7127 -27.9025   C.ar      1 RES1   0.0000
   119 C3D    -13.6278 -20.7084 -28.2304   C.ar      1 RES1   0.0000
   120 H5D    -13.3394 -20.2800 -29.0302   H         1 RES1   0.0000
   121 C4D    -12.7100 -21.3115 -27.4130   C.ar      1 RES1   0.0000
   122 H6D    -11.7878 -21.2853 -27.6578   H         1 RES1   0.0000
   123 C5D    -13.0597 -21.9234 -26.3072   C.ar      1 RES1   0.0000
   124 H7D    -12.3866 -22.3212 -25.7653   H         1 RES1   0.0000
   125 O5D    -18.1909 -21.8535 -29.2225   O.3       1 RES1   0.0000
   126 C23D   -19.3928 -22.2381 -29.1744   C.ar      1 RES1   0.0000
   127 C22H   -19.9960 -22.9768 -30.1185   C.ar      1 RES1   0.0000
   128 C21H   -21.4208 -23.3264 -29.9568   C.ar      1 RES1   0.0000
   129 C20H   -22.1157 -22.8850 -28.9209   C.ar      1 RES1   0.0000
   130 C19H   -21.5607 -22.0895 -27.9506   C.ar      1 RES1   0.0000
   131 C18H   -22.4261 -21.5563 -26.8492   C.2       1 RES1   0.0000
   132 O4H    -23.6324 -21.8841 -26.7880   O.2       1 RES1   0.0000
   133 N2H    -21.8710 -20.7084 -26.0144   N.am      1 RES1   0.0000
   134 H2H    -21.0100 -20.5379 -26.0800   H         1 RES1   0.0000
   135 C17H   -22.6227 -20.0746 -25.0135   C.ar      1 RES1   0.0000
   136 C12H   -22.7408 -18.6716 -25.0135   C.ar      1 RES1   0.0000
   137 C11H   -22.1070 -17.9111 -25.9620   C.ar      1 RES1   0.0000
   138 C10H   -22.3299 -16.5344 -26.0406   C.ar      1 RES1   0.0000
   139 C9H    -23.1603 -15.9312 -25.0966   C.ar      1 RES1   0.0000
   140 C8H    -23.7810 -16.6655 -24.1000   C.ar      1 RES1   0.0000
   141 N1H    -24.6770 -16.0536 -23.1997   N.am      1 RES1   0.0000
   142 H1H    -25.2932 -16.5781 -22.8588   H         1 RES1   0.0000
   143 C7H    -24.7119 -14.7992 -22.8063   C.2       1 RES1   0.0000
   144 O3H    -23.8684 -13.9382 -23.1254   O.2       1 RES1   0.0000
   145 C6H    -25.8964 -14.4277 -22.0065   C.ar      1 RES1   0.0000
   146 C1H    -26.7312 -15.3892 -21.3902   C.ar      1 RES1   0.0000
   147 O1H    -26.5039 -16.6961 -21.3946   O.3       1 RES1   0.0000
   148 Fe1H   -27.8982 -17.7538 -20.3780   Fe        1 RES1  -3.0000
   149 O2H    -28.6587 -15.9050 -20.1795   O.3       1 RES1   0.0000
   150 C2H    -27.9025 -14.9522 -20.7127   C.ar      1 RES1   0.0000
   151 C3H    -28.2304 -13.6278 -20.7084   C.ar      1 RES1   0.0000
   152 H5H    -29.0302 -13.3394 -20.2800   H         1 RES1   0.0000
   153 C4H    -27.4130 -12.7100 -21.3115   C.ar      1 RES1   0.0000
   154 H6H    -27.6578 -11.7878 -21.2853   H         1 RES1   0.0000
   155 C5H    -26.3072 -13.0597 -21.9234   C.ar      1 RES1   0.0000
   156 H7H    -25.7653 -12.3866 -22.3212   H         1 RES1   0.0000
   157 O5H    -29.2225 -18.1909 -21.8535   O.3       1 RES1   0.0000
   158 C23H   -29.1744 -19.3928 -22.2381   C.ar      1 RES1   0.0000
   159 C24H   -28.0293 -20.1926 -21.7748   C.ar      1 RES1   0.0000
   160 O6H    -27.1726 -19.5545 -20.9925   O.3       1 RES1   0.0000
   161 O7H    -26.7749 -17.9330 -18.6935   O.3       1 RES1   0.0000
   162 C25H   -27.4305 -18.4749 -17.6664   C.ar      1 RES1   0.0000
   163 C26H   -28.8597 -18.7110 -17.9330   C.ar      1 RES1   0.0000
   164 O8H    -29.3055 -18.4356 -19.1437   O.3       1 RES1   0.0000
   165 C27H   -29.6377 -19.1568 -16.8928   C.ar      1 RES1   0.0000
   166 H17H   -30.5687 -19.2792 -17.0195   H         1 RES1   0.0000
   167 C28H   -29.0477 -19.4496 -15.5990   C.ar      1 RES1   0.0000
   168 H18H   -29.5896 -19.7905 -14.8953   H         1 RES1   0.0000
   169 C29H   -27.7146 -19.2355 -15.3892   C.ar      1 RES1   0.0000
   170 H19H   -27.3256 -19.4146 -14.5413   H         1 RES1   0.0000
   171 C30H   -26.9454 -18.7678 -16.4163   C.ar      1 RES1   0.0000
   172 C31H   -25.4637 -18.5886 -16.0448   C.2       1 RES1   0.0000
   173 O9H    -25.0179 -19.0038 -14.9653   O.2       1 RES1   0.0000
   174 N3H    -24.7338 -17.9767 -17.0064   N.am      1 RES1   0.0000
   175 H3H    -25.1097 -17.8893 -17.7975   H         1 RES1   0.0000
   176 C32H   -23.4532 -17.4784 -16.8534   C.ar      1 RES1   0.0000
   177 C33H   -22.7670 -17.6096 -15.5947   C.ar      1 RES1   0.0000
   178 H20H   -23.1560 -18.0772 -14.8648   H         1 RES1   0.0000
   179 C34H   -21.4208 -16.9845 -15.4766   C.ar      1 RES1   0.0000
   180 H21H   -20.9619 -17.0457 -14.6462   H         1 RES1   0.0000
   181 C35H   -20.8045 -16.3115 -16.5300   C.ar      1 RES1   0.0000
   182 H22H   -19.9435 -15.9225 -16.4295   H         1 RES1   0.0000
   183 C36H   -21.5344 -16.2284 -17.8062   C.ar      1 RES1   0.0000
   184 C37H   -22.8151 -16.8228 -17.9767   C.ar      1 RES1   0.0000
   185 C38H   -23.4357 -16.7485 -19.2092   C.ar      1 RES1   0.0000
   186 H23H   -24.3011 -17.1244 -19.3141   H         1 RES1   0.0000
   187 C39H   -22.8369 -16.1585 -20.2713   C.ar      1 RES1   0.0000
   188 H24H   -23.2871 -16.1323 -21.1105   H         1 RES1   0.0000
   189 C40H   -21.5607 -15.5772 -20.1402   C.ar      1 RES1   0.0000
   190 H25H   -21.1323 -15.2144 -20.9094   H         1 RES1   0.0000
   191 C41H   -20.9051 -15.5247 -18.8945   C.ar      1 RES1   0.0000
   192 N4H    -19.6638 -14.9784 -18.7110   N.am      1 RES1   0.0000
   193 H4H    -19.1087 -15.4417 -18.2083   H         1 RES1   0.0000
   194 C42H   -19.1830 -13.8158 -19.2005   C.2       1 RES1   0.0000
   195 O10H   -19.9042 -13.1252 -19.9828   O.2       1 RES1   0.0000
   196 C43H   -17.8980 -13.4093 -18.8028   C.ar      1 RES1   0.0000
   197 C44H   -17.3823 -12.1637 -19.2442   C.ar      1 RES1   0.0000
   198 H26H   -17.9024 -11.6217 -19.8299   H         1 RES1   0.0000
   199 C45H   -16.1585 -11.7353 -18.8465   C.ar      1 RES1   0.0000
   200 H27H   -15.8394 -10.8918 -19.1480   H         1 RES1   0.0000
   201 C46H   -15.3543 -12.5133 -17.9985   C.ar      1 RES1   0.0000
   202 H28H   -14.4976 -12.1943 -17.7363   H         1 RES1   0.0000
   203 C47H   -15.7870 -13.7109 -17.5484   C.ar      1 RES1   0.0000
   204 O11H   -15.0964 -14.4976 -16.6873   O.3       1 RES1   0.0000
   205 O11D   -14.4976 -16.6873 -15.0964   O.3       1 RES1   0.0000
   206 C47D   -13.7109 -17.5484 -15.7870   C.ar      1 RES1   0.0000
   207 C46D   -12.5133 -17.9985 -15.3543   C.ar      1 RES1   0.0000
   208 C45D   -11.7353 -18.8465 -16.1585   C.ar      1 RES1   0.0000
   209 C44D   -12.1637 -19.2442 -17.3823   C.ar      1 RES1   0.0000
   210 C43D   -13.4093 -18.8028 -17.8980   C.ar      1 RES1   0.0000
   211 C42D   -13.8158 -19.2005 -19.1830   C.2       1 RES1   0.0000
   212 O10D   -13.1252 -19.9828 -19.9042   O.2       1 RES1   0.0000
   213 N4D    -14.9784 -18.7110 -19.6638   N.am      1 RES1   0.0000
   214 H4D    -15.4417 -18.2083 -19.1087   H         1 RES1   0.0000
   215 C41D   -15.5247 -18.8945 -20.9051   C.ar      1 RES1   0.0000
   216 C36D   -16.2284 -17.8062 -21.5344   C.ar      1 RES1   0.0000
   217 C35D   -16.3115 -16.5300 -20.8045   C.ar      1 RES1   0.0000
   218 C34D   -16.9845 -15.4766 -21.4208   C.ar      1 RES1   0.0000
   219 C33D   -17.6096 -15.5947 -22.7670   C.ar      1 RES1   0.0000
   220 C32D   -17.4784 -16.8534 -23.4532   C.ar      1 RES1   0.0000
   221 N3D    -17.9767 -17.0064 -24.7338   N.am      1 RES1   0.0000
   222 H3D    -17.8893 -17.7975 -25.1097   H         1 RES1   0.0000
   223 C31D   -18.5886 -16.0448 -25.4637   C.2       1 RES1   0.0000
   224 O9D    -19.0038 -14.9653 -25.0179   O.2       1 RES1   0.0000
   225 C30D   -18.7678 -16.4163 -26.9454   C.ar      1 RES1   0.0000
   226 C25D   -18.4749 -17.6664 -27.4305   C.ar      1 RES1   0.0000
   227 O7D    -17.9330 -18.6935 -26.7749   O.3       1 RES1   0.0000
   228 O6D    -19.5545 -20.9925 -27.1726   O.3       1 RES1   0.0000
   229 C24D   -20.1926 -21.7748 -28.0293   C.ar      1 RES1   0.0000
   230 O8D    -18.4356 -19.1437 -29.3055   O.3       1 RES1   0.0000
   231 C26D   -18.7110 -17.9330 -28.8597   C.ar      1 RES1   0.0000
   232 C27D   -19.1568 -16.8928 -29.6377   C.ar      1 RES1   0.0000
   233 H17D   -19.2792 -17.0195 -30.5687   H         1 RES1   0.0000
   234 C28D   -19.4496 -15.5990 -29.0477   C.ar      1 RES1   0.0000
   235 H18D   -19.7905 -14.8953 -29.5896   H         1 RES1   0.0000
   236 C29D   -19.2355 -15.3892 -27.7146   C.ar      1 RES1   0.0000
   237 H19D   -19.4146 -14.5413 -27.3256   H         1 RES1   0.0000
   238 C37D   -16.8228 -17.9767 -22.8151   C.ar      1 RES1   0.0000
   239 C38D   -16.7485 -19.2092 -23.4357   C.ar      1 RES1   0.0000
   240 H23D   -17.1244 -19.3141 -24.3011   H         1 RES1   0.0000
   241 C39D   -16.1585 -20.2713 -22.8369   C.ar      1 RES1   0.0000
   242 H24D   -16.1323 -21.1105 -23.2871   H         1 RES1   0.0000
   243 C40D   -15.5772 -20.1402 -21.5607   C.ar      1 RES1   0.0000
   244 H25D   -15.2144 -20.9094 -21.1323   H         1 RES1   0.0000
   245 H20D   -18.0772 -14.8648 -23.1560   H         1 RES1   0.0000
   246 H21D   -17.0457 -14.6462 -20.9619   H         1 RES1   0.0000
   247 H22D   -15.9225 -16.4295 -19.9435   H         1 RES1   0.0000
   248 C48D   -14.1742 -17.9548 -17.0763   C.ar      1 RES1   0.0000
   249 O12D   -15.3805 -17.3823 -17.4391   O.3       1 RES1   0.0000
   250 O12H   -17.4391 -15.3805 -17.3823   O.3       1 RES1   0.0000
   251 C48H   -17.0763 -14.1742 -17.9548   C.ar      1 RES1   0.0000
   252 H26D   -11.6217 -19.8299 -17.9024   H         1 RES1   0.0000
   253 H27D   -10.8918 -19.1480 -15.8394   H         1 RES1   0.0000
   254 H28D   -12.1943 -17.7363 -14.4976   H         1 RES1   0.0000
   255 C13H   -23.5450 -18.0379 -24.0432   C.ar      1 RES1   0.0000
   256 C14H   -24.1525 -18.8202 -23.0161   C.ar      1 RES1   0.0000
   257 H11H   -24.6507 -18.4050 -22.3168   H         1 RES1   0.0000
   258 C15H   -24.0083 -20.1664 -23.0598   C.ar      1 RES1   0.0000
   259 H12H   -24.4278 -20.6778 -22.3780   H         1 RES1   0.0000
   260 C16H   -23.2609 -20.8701 -24.0607   C.ar      1 RES1   0.0000
   261 H13H   -23.2084 -21.8185 -24.0738   H         1 RES1   0.0000
   262 H8H    -23.3002 -14.9915 -25.1403   H         1 RES1   0.0000
   263 H9H    -21.9191 -16.0230 -26.7268   H         1 RES1   0.0000
   264 H10H   -21.5082 -18.3220 -26.5739   H         1 RES1   0.0000
   265 H14H   -23.0336 -23.1254 -28.8466   H         1 RES1   0.0000
   266 H15H   -21.8404 -23.8771 -30.6080   H         1 RES1   0.0000
   267 H16H   -19.5064 -23.2740 -30.8790   H         1 RES1   0.0000
   268 C13D   -18.0379 -24.0432 -23.5450   C.ar      1 RES1   0.0000
   269 C14D   -18.8202 -23.0161 -24.1525   C.ar      1 RES1   0.0000
   270 H11D   -18.4050 -22.3168 -24.6507   H         1 RES1   0.0000
   271 C15D   -20.1664 -23.0598 -24.0083   C.ar      1 RES1   0.0000
   272 H12D   -20.6778 -22.3780 -24.4278   H         1 RES1   0.0000
   273 C16D   -20.8701 -24.0607 -23.2609   C.ar      1 RES1   0.0000
   274 H13D   -21.8185 -24.0738 -23.2084   H         1 RES1   0.0000
   275 H8D    -14.9915 -25.1403 -23.3002   H         1 RES1   0.0000
   276 H9D    -16.0230 -26.7268 -21.9191   H         1 RES1   0.0000
   277 H10D   -18.3220 -26.5739 -21.5082   H         1 RES1   0.0000
   278 H14D   -23.1254 -28.8466 -23.0336   H         1 RES1   0.0000
   279 H15D   -23.8771 -30.6080 -21.8404   H         1 RES1   0.0000
   280 H16D   -23.2740 -30.8790 -19.5064   H         1 RES1   0.0000
   281 K1     -21.9497 -20.5729 -12.1427   K         2 RES2   1.0000
   282 K3     -31.3335 -16.3858 -19.7818   K         3 RES3   1.0000
   283 K4     -14.6069 -15.8045 -12.6619   K         4 RES4   1.0000
   284 O13    -23.2434 -21.0056 -14.0693   O.3       5 RES5   0.0000
   285 O14    -21.3378 -20.7477  -9.8122   O.3       6 RES6   0.0000
   286 C62    -19.9217 -20.3937  -9.5718   C.3       6 RES6   0.0000
   287 O15    -24.2749 -21.8535 -10.9268   O.3       7 RES7   0.0000
   288 O16    -32.7803 -17.9636 -21.8535   O.3       8 RES8   0.0000
   289 O17    -15.5291 -17.8150 -11.4775   O.3       9 RES9   0.0000
   290 O19    -25.8396 -21.3028  -9.7335   O.3      10 RES10   0.0000
   291 N5     -27.7277 -14.3403 -16.2066   N.4      11 RES11   1.0000
   292 C49    -26.9279 -14.9828 -17.3342   C.3      11 RES11   0.0000
   293 H29    -26.5826 -15.8569 -17.0195   H        11 RES11   0.0000
   294 H30    -27.5354 -15.1532 -18.0947   H        11 RES11   0.0000
   295 C50    -28.8335 -15.3586 -15.8875   C.3      11 RES11   0.0000
   296 H31    -28.3964 -16.2372 -15.7739   H        11 RES11   0.0000
   297 H32    -29.2138 -15.1095 -15.0090   H        11 RES11   0.0000
   298 C51    -28.3615 -13.0509 -16.6698   C.3      11 RES11   0.0000
   299 H33    -28.8728 -13.2389 -17.4959   H        11 RES11   0.0000
   300 H34    -27.6359 -12.4259 -16.9102   H        11 RES11   0.0000
   301 C52    -26.8011 -14.0256 -15.0483   C.3      11 RES11   0.0000
   302 H35    -27.3212 -13.5841 -14.3272   H        11 RES11   0.0000
   303 H36    -26.1062 -13.3875 -15.3543   H        11 RES11   0.0000
   304 C53    -25.7740 -14.1654 -17.8193   C.3      11 RES11   0.0000
   305 H37    -25.3151 -14.6462 -18.5405   H        11 RES11   0.0000
   306 H38    -25.1490 -14.0125 -17.0807   H        11 RES11   0.0000
   307 H39    -26.1018 -13.3044 -18.1559   H        11 RES11   0.0000
   308 C54    -29.9568 -15.5466 -16.8097   C.3      11 RES11   0.0000
   309 H40    -30.5687 -16.2197 -16.4426   H        11 RES11   0.0000
   310 H41    -29.6202 -15.8482 -17.6795   H        11 RES11   0.0000
   311 H42    -30.4376 -14.6987 -16.9190   H        11 RES11   0.0000
   312 C55    -29.2924 -12.3429 -15.6908   C.3      11 RES11   0.0000
   313 H43    -29.6246 -11.5212 -16.0973   H        11 RES11   0.0000
   314 H44    -28.7985 -12.1287 -14.8691   H        11 RES11   0.0000
   315 H45    -30.0442 -12.9329 -15.4723   H        11 RES11   0.0000
   316 C56    -26.1018 -15.3193 -14.4670   C.3      11 RES11   0.0000
   317 H46    -25.5205 -15.0658 -13.7196   H        11 RES11   0.0000
   318 H47    -25.5686 -15.7433 -15.1707   H        11 RES11   0.0000
   319 H48    -26.7836 -15.9443 -14.1523   H        11 RES11   0.0000
   320 K2?    -31.5433 -18.5055 -20.2932   K        12 RES12   0.0000
   321 K5?    -14.0868 -15.1882 -13.1034   K        12 RES12   0.0000
   322 O18?   -31.3335 -15.6996 -20.3456   O.3      12 RES12   0.0000
   323 N6?    -20.0047 -20.0047 -20.0047   N.3      12 RES12   0.0000
   324 N7?    -23.1953 -18.7765 -11.9102   N.3      12 RES12   0.0000
   325 N8?    -15.5903 -18.9295 -11.7091   N.3      12 RES12   0.0000
   326 N9?    -31.8799 -20.7914 -19.8998   N.3      12 RES12   0.0000
   327 C57?   -19.8823 -18.8028 -19.1874   C.3      12 RES12   0.0000
   328 C58?   -18.9208 -20.8745 -20.4418   C.3      12 RES12   0.0000
   329 C59?   -18.5361 -18.5361 -18.5361   C.3      12 RES12   0.0000
   330 C60?   -18.4444 -22.2425 -20.3063   C.3      12 RES12   0.0000
   331 C61?   -19.5633 -22.2818 -20.2538   C.3      12 RES12   0.0000
   332 C63?   -31.4079 -22.0720 -19.6463   C.3      12 RES12   0.0000
   333 C64?   -29.9611 -21.9278 -19.3272   C.3      12 RES12   0.0000
   334 C65?   -31.5914 -19.3622 -19.8823   C.3      12 RES12   0.0000
   335 C66?   -24.2268 -17.9024 -11.9670   C.3      12 RES12   0.0000
   336 C67?   -25.6604 -18.0947 -12.0325   C.3      12 RES12   0.0000
   337 C68?   -15.2188 -19.4409 -12.9941   C.3      12 RES12   0.0000
   338 C69?   -16.5737 -19.6725 -11.0404   C.3      12 RES12   0.0000
   339 C70?   -15.1751 -17.9374 -10.8131   C.3      12 RES12   0.0000
@<TRIPOS>BOND
     1     1     3    1
     2     2    13    1
     3     3    23    1
     4     4     1    1
     5     5    32    2
     6     6    49    2
     7     7     1    1
     8     8     1    1
     9     9     1    1
    10    10     1    1
    11    11    68    2
    12    12    85    2
    13    13    93    1
    14    14     2    1
    15    15    16    1
    16    17    18    1
    17    19    20    1
    18    21    22    1
    19    23    24   ar
    20    24     4    1
    21    25    24   ar
    22    26    25    1
    23    27    25   ar
    24    28    27    1
    25    29    27   ar
    26    30    29    1
    27    31    23   ar
    28    32    15   am
    29    33    15    1
    30    34    33   ar
    31    35    34    1
    32    36    34   ar
    33    37    36    1
    34    38    36   ar
    35    39    38    1
    36    40    38   ar
    37    41    33   ar
    38    42    41   ar
    39    43    42    1
    40    44    42   ar
    41    45    44    1
    42    46    44   ar
    43    47    46    1
    44    48    17    1
    45    49    17   am
    46    50    49    1
    47    51    50   ar
    48    52    51    1
    49    53    51   ar
    50    54    53    1
    51    55    53   ar
    52    56    55    1
    53    57     7    1
    54    58     8    1
    55    59     9    1
    56    60    10    1
    57    61    60   ar
    58    62    61    1
    59    63    61   ar
    60    64    63    1
    61    65    63   ar
    62    66    65    1
    63    67    59   ar
    64    68    19   am
    65    69    19    1
    66    70    69   ar
    67    71    70    1
    68    72    70   ar
    69    73    72    1
    70    74    72   ar
    71    75    74    1
    72    76    74   ar
    73    77    69   ar
    74    78    77   ar
    75    79    78    1
    76    80    78   ar
    77    81    80    1
    78    82    80   ar
    79    83    82    1
    80    84    21    1
    81    85    21   am
    82    86    85    1
    83    87    86   ar
    84    88    87    1
    85    89    87   ar
    86    90    89    1
    87    91    89   ar
    88    92    91    1
    89    93    91   ar
    90    94    14    1
    91    95    57   ar
    92    96    95   ar
    93    97    96   ar
    94    98    58   ar
    95    99    98    1
    96   100    99    2
    97   101    99   am
    98   102   101    1
    99   103   101    1
   100   104   103   ar
   101   105   104   ar
   102   106   105   ar
   103   107   106   ar
   104   108   107   ar
   105   109   108    1
   106   110   109    1
   107   111   109   am
   108   112   111    2
   109   113   111    1
   110   114   113   ar
   111   115   114    1
   112   116   115    1
   113   117   116    1
   114   118   114   ar
   115   119   118   ar
   116   120   119    1
   117   121   119   ar
   118   122   121    1
   119   123   113   ar
   120   124   123    1
   121   125   116    1
   122   126   125    1
   123   127   126   ar
   124   128   127   ar
   125   129   128   ar
   126   130   129   ar
   127   131   130    1
   128   132   131    2
   129   133   131   am
   130   134   133    1
   131   135   133    1
   132   136   135   ar
   133   137   136   ar
   134   138   137   ar
   135   139   138   ar
   136   140   139   ar
   137   141   140    1
   138   142   141    1
   139   143   141   am
   140   144   143    2
   141   145   143    1
   142   146   145   ar
   143   147   146    1
   144   148   147    1
   145   149   148    1
   146   150   146   ar
   147   151   150   ar
   148   152   151    1
   149   153   151   ar
   150   154   153    1
   151   155   145   ar
   152   156   155    1
   153   157   148    1
   154   158    55   ar
   155   159    50   ar
   156   160   148    1
   157   161   148    1
   158   162   161    1
   159   163   162   ar
   160   164   148    1
   161   165   163   ar
   162   166   165    1
   163   167   165   ar
   164   168   167    1
   165   169   167   ar
   166   170   169    1
   167   171   162   ar
   168   172   171    1
   169   173   172    2
   170   174   172   am
   171   175   174    1
   172   176   174    1
   173   177   176   ar
   174   178   177    1
   175   179   177   ar
   176   180   179    1
   177   181   179   ar
   178   182   181    1
   179   183   181   ar
   180   184   176   ar
   181   185   184   ar
   182   186   185    1
   183   187   185   ar
   184   188   187    1
   185   189   187   ar
   186   190   189    1
   187   191   183   ar
   188   192   191    1
   189   193   192    1
   190   194   192   am
   191   195   194    2
   192   196   194    1
   193   197   196   ar
   194   198   197    1
   195   199   197   ar
   196   200   199    1
   197   201   199   ar
   198   202   201    1
   199   203   201   ar
   200   204     2    1
   201   205     2    1
   202   206   205    1
   203   207   206   ar
   204   208   207   ar
   205   209   208   ar
   206   210   209   ar
   207   211   210    1
   208   212   211    2
   209   213   211   am
   210   214   213    1
   211   215   213    1
   212   216   215   ar
   213   217   216   ar
   214   218   217   ar
   215   219   218   ar
   216   220   219   ar
   217   221   220    1
   218   222   221    1
   219   223   221   am
   220   224   223    2
   221   225   223    1
   222   226   225   ar
   223   227   116    1
   224   228   116    1
   225   229   126   ar
   226   230   116    1
   227   231   226   ar
   228   232   231   ar
   229   233   232    1
   230   234   232   ar
   231   235   234    1
   232   236   225   ar
   233   237   236    1
   234   238   216   ar
   235   239   238   ar
   236   240   239    1
   237   241   239   ar
   238   242   241    1
   239   243   215   ar
   240   244   243    1
   241   245   219    1
   242   246   218    1
   243   247   217    1
   244   248   206   ar
   245   249     2    1
   246   250     2    1
   247   251   196   ar
   248   252   209    1
   249   253   208    1
   250   254   207    1
   251   255   136   ar
   252   256   255   ar
   253   257   256    1
   254   258   256   ar
   255   259   258    1
   256   260   135   ar
   257   261   260    1
   258   262   139    1
   259   263   138    1
   260   264   137    1
   261   265   129    1
   262   266   128    1
   263   267   127    1
   264   268   104   ar
   265   269   268   ar
   266   270   269    1
   267   271   269   ar
   268   272   271    1
   269   273   103   ar
   270   274   273    1
   271   275   107    1
   272   276   106    1
   273   277   105    1
   274   278    97    1
   275   279    96    1
   276   280    95    1
   277    29    31   ar
   278    31    32    1
   279    40    48   ar
   280    40    41   ar
   281    46    48   ar
   282    57    58   ar
   283    59    60   ar
   284    65    67   ar
   285    67    68    1
   286    76    84   ar
   287    76    77   ar
   288    82    84   ar
   289    86    94   ar
   290    93    94   ar
   291    97    98   ar
   292   108   268   ar
   293   117   118    1
   294   121   123   ar
   295   130   229   ar
   296   140   255   ar
   297   149   150    1
   298   153   155   ar
   299   157   158    1
   300   158   159   ar
   301   159   160    1
   302   163   164    1
   303   169   171   ar
   304   183   184   ar
   305   189   191   ar
   306   203   204    1
   307   203   251   ar
   308   210   248   ar
   309   220   238   ar
   310   226   227    1
   311   228   229    1
   312   230   231    1
   313   234   236   ar
   314   241   243   ar
   315   248   249    1
   316   250   251    1
   317   258   260   ar
   318   271   273   ar
   319   285   286    1
   320   291   292    1
   321   292   293    1
   322   294   292    1
   323   295   291    1
   324   296   295    1
   325   297   295    1
   326   298   291    1
   327   299   298    1
   328   300   298    1
   329   301   291    1
   330   302   301    1
   331   303   301    1
   332   304   292    1
   333   305   304    1
   334   306   304    1
   335   307   304    1
   336   308   295    1
   337   309   308    1
   338   310   308    1
   339   311   308    1
   340   312   298    1
   341   313   312    1
   342   314   312    1
   343   315   312    1
   344   316   301    1
   345   317   316    1
   346   318   316    1
   347   319   316    1
@<TRIPOS>SUBSTRUCTURE
     1 RES1        1 GROUP             0 ****  ****    0  
     2 RES2      281 GROUP             0 ****  ****    0  
     3 RES3      282 GROUP             0 ****  ****    0  
     4 RES4      283 GROUP             0 ****  ****    0  
     5 RES5      284 GROUP             0 ****  ****    0  
     6 RES6      285 GROUP             0 ****  ****    0  
     7 RES7      287 GROUP             0 ****  ****    0  
     8 RES8      288 GROUP             0 ****  ****    0  
     9 RES9      289 GROUP             0 ****  ****    0  
    10 RES10     290 GROUP             0 ****  ****    0  
    11 RES11     291 GROUP             0 ****  ****    0  
    12 RES12     320 GROUP             0 ****  ****    0  
@<TRIPOS>CRYSIN
   43.7070   43.7070   43.7070   90.0000   90.0000   90.0000   220     1
