####################################################################### 
# 
# This file contains crystal structure data downloaded from the 
# Cambridge Structural Database (CSD) hosted by the Cambridge 
# Crystallographic Data Centre (CCDC).
# 
# Full information about CCDC data access policies and citation 
# guidelines are available at http://www.ccdc.cam.ac.uk/access/V1 
# 
# Audit and citation data items may have been added by the CCDC. 
# Please retain this information to preserve the provenance of 
# this file and to allow appropriate attribution of the data. 
# 
#######################################################################
@<TRIPOS>MOLECULE
1499234
   405   461     7     0     0
SMALL
USER_CHARGES
****
Generated from the CSD

@<TRIPOS>ATOM
     1 Eu1      4.3640   8.5126  28.9192   Eu        1 RES1   3.0000
     2 Eu2     -0.0013  14.6077  19.8704   Eu        1 RES1   3.0000
     3 C1_1     5.9556   5.4557  27.5997   C.3       1 RES1   0.0000
     4 H1A_1    5.1410   4.9430  27.4838   H         1 RES1   0.0000
     5 H1B_1    6.3693   5.2125  28.4433   H         1 RES1   0.0000
     6 C2_1     6.9271   5.2497  26.4084   C.3       1 RES1   0.0000
     7 H2A_1    7.7835   4.9277  26.7304   H         1 RES1   0.0000
     8 H2B_1    6.5666   4.5990  25.7902   H         1 RES1   0.0000
     9 O3_1     7.0815   6.5162  25.7709   O.3       1 RES1   0.0000
    10 C4_1     6.2934   7.3422  26.5501   C.2       1 RES1   0.0000
    11 N5_1     5.6912   6.9259  27.5224   N.2       1 RES1   0.0000
    12 N6_1     5.7836   9.5573  27.0800   N.ar      1 RES1   0.0000
    13 C7_1     6.3389   8.7269  26.1154   C.ar      1 RES1   0.0000
    14 C8_1     6.7462   9.2528  24.8951   C.ar      1 RES1   0.0000
    15 H8_1     7.1207   8.6963  24.2512   H         1 RES1   0.0000
    16 C9_1     6.5995  10.6112  24.6395   C.ar      1 RES1   0.0000
    17 H9_1     6.8727  10.9618  23.8262   H         1 RES1   0.0000
    18 C10_1    6.0442  11.4416  25.6041   C.ar      1 RES1   0.0000
    19 H10_1    5.9442  12.3509  25.4360   H         1 RES1   0.0000
    20 C11_1    5.6343  10.9158  26.8244   C.ar      1 RES1   0.0000
    21 C12_1    5.0031  11.6103  27.9410   C.2       1 RES1   0.0000
    22 O13_1    4.5957  10.9749  28.8844   O.2       1 RES1   0.0000
    23 N14_1    4.9259  12.9140  27.8901   N.am      1 RES1   0.0000
    24 H14_1    5.3257  13.3128  27.2391   H         1 RES1   0.0000
    25 C15_1    4.2125  13.7510  28.8535   C.ar      1 RES1   0.0000
    26 C16_1    2.9222  13.3960  29.2218   C.ar      1 RES1   0.0000
    27 H16_1    2.5439  12.6095  28.9005   H         1 RES1   0.0000
    28 C17_1    2.1922  14.2177  30.0738   C.ar      1 RES1   0.0000
    29 H17_1    1.3270  13.9811  30.3172   H         1 RES1   0.0000
    30 C18_1    2.7564  15.3921  30.5567   C.ar      1 RES1   0.0000
    31 H18_1    2.2669  15.9420  31.1285   H         1 RES1   0.0000
    32 C19_1    4.0467  15.7470  30.1884   C.ar      1 RES1   0.0000
    33 C20_1    4.7766  14.9254  29.3371   C.ar      1 RES1   0.0000
    34 C21_1    6.0998  15.2672  29.0228   C.ar      1 RES1   0.0000
    35 H21_1    6.6096  14.7216  28.4690   H         1 RES1   0.0000
    36 C22_1    6.6400  16.4350  29.5573   C.ar      1 RES1   0.0000
    37 H22_1    7.5242  16.6563  29.3706   H         1 RES1   0.0000
    38 C23_1    5.8595  17.2830  30.3687   C.ar      1 RES1   0.0000
    39 H23_1    6.2137  18.0761  30.7035   H         1 RES1   0.0000
    40 C24_1    4.5793  16.9236  30.6585   C.ar      1 RES1   0.0000
    41 N25_1    3.8216  17.8285  31.4827   N.am      1 RES1   0.0000
    42 H25_1    3.6571  17.6007  32.2941   H         1 RES1   0.0000
    43 C26_1    3.3725  18.9832  31.0513   C.2       1 RES1   0.0000
    44 O27_1    3.5660  19.3141  29.8651   O.2       1 RES1   0.0000
    45 N28_1    2.4389  21.0735  31.3571   N.ar      1 RES1   0.0000
    46 C29_1    2.6729  19.8969  31.9464   C.ar      1 RES1   0.0000
    47 C30_1    2.3769  19.7304  33.3051   C.ar      1 RES1   0.0000
    48 H30_1    2.6186  18.9613  33.7687   H         1 RES1   0.0000
    49 C31_1    1.7040  20.7777  33.9233   C.ar      1 RES1   0.0000
    50 H31_1    1.3902  20.6418  34.7926   H         1 RES1   0.0000
    51 C32_1    1.4801  21.9543  33.3630   C.ar      1 RES1   0.0000
    52 H32_1    1.1094  22.6664  33.8331   H         1 RES1   0.0000
    53 C33_1    1.8267  22.0594  32.0558   C.ar      1 RES1   0.0000
    54 C34_1    1.6597  23.2514  31.3217   C.2       1 RES1   0.0000
    55 N35_1    1.9911  23.3784  30.0596   N.2       1 RES1   0.0000
    56 C36_1    1.5863  24.7413  29.7119   C.3       1 RES1   0.0000
    57 H36A_1    0.9159  24.7194  29.0099   H         1 RES1   0.0000
    58 H36B_1    2.3529  25.2408  29.3834   H         1 RES1   0.0000
    59 C37_1    1.0424  25.3767  30.9160   C.3       1 RES1   0.0000
    60 H37A_1    0.1455  25.7031  30.7615   H         1 RES1   0.0000
    61 H37B_1    1.6040  26.1129  31.2058   H         1 RES1   0.0000
    62 O38_1    1.0487  24.2790  31.9161   O.3       1 RES1   0.0000
    63 C1_2     4.9082   5.7756  31.4054   C.3       1 RES1   0.0000
    64 H1A_2    5.0385   6.4176  32.1202   H         1 RES1   0.0000
    65 H1B_2    5.7697   5.4491  31.1028   H         1 RES1   0.0000
    66 C2_2     3.9784   4.6034  31.8562   C.3       1 RES1   0.0000
    67 H2A_2    4.4870   3.7839  31.9657   H         1 RES1   0.0000
    68 H2B_2    3.5331   4.8137  32.6869   H         1 RES1   0.0000
    69 O3_2     3.0259   4.4741  30.7744   O.3       1 RES1   0.0000
    70 C4_2     3.1941   5.6156  30.0338   C.2       1 RES1   0.0000
    71 N5_2     4.1378   6.3562  30.2978   N.2       1 RES1   0.0000
    72 N6_2     2.5136   6.8908  28.2218   N.ar      1 RES1   0.0000
    73 C7_2     2.2897   5.7449  28.8876   C.ar      1 RES1   0.0000
    74 C8_2     1.2182   4.8970  28.5785   C.ar      1 RES1   0.0000
    75 H8_2     1.0411   4.1389  29.0872   H         1 RES1   0.0000
    76 C9_2     0.4503   5.2322  27.5095   C.ar      1 RES1   0.0000
    77 H9_2    -0.2226   4.6494  27.2391   H         1 RES1   0.0000
    78 C10_2    0.6363   6.4176  26.8141   C.ar      1 RES1   0.0000
    79 H10_2    0.0784   6.6520  26.1122   H         1 RES1   0.0000
    80 C11_2    1.6812   7.2370  27.2069   C.ar      1 RES1   0.0000
    81 C12_2    2.0746   8.5144  26.6080   C.2       1 RES1   0.0000
    82 O13_2    3.0512   9.1104  27.0272   O.2       1 RES1   0.0000
    83 N14_2    1.2473   9.0709  25.7516   N.am      1 RES1   0.0000
    84 H14_2    0.6135   8.6130  25.3974   H         1 RES1   0.0000
    85 C15_2    1.4332  10.5192  25.3974   C.ar      1 RES1   0.0000
    86 C16_2    0.8804  11.4855  26.1251   C.ar      1 RES1   0.0000
    87 H16_2    0.2770  11.2948  26.8076   H         1 RES1   0.0000
    88 C17_2    1.2435  12.8110  25.8160   C.ar      1 RES1   0.0000
    89 H17_2    0.9272  13.4990  26.3504   H         1 RES1   0.0000
    90 C18_2    2.0392  13.1156  24.7728   C.ar      1 RES1   0.0000
    91 H18_2    2.2441  14.0052  24.5925   H         1 RES1   0.0000
    92 C19_2    2.5654  12.0814  23.9485   C.ar      1 RES1   0.0000
    93 C20_2    2.3048  10.7756  24.3284   C.ar      1 RES1   0.0000
    94 C21_2    2.8349   9.7129  23.5621   C.ar      1 RES1   0.0000
    95 H21_2    2.6540   8.8255  23.7811   H         1 RES1   0.0000
    96 C22_2    3.6571  10.0503  22.4610   C.ar      1 RES1   0.0000
    97 H22_2    4.0063   9.3711  21.9265   H         1 RES1   0.0000
    98 C23_2    3.9595  11.4022  22.1454   C.ar      1 RES1   0.0000
    99 H23_2    4.5414  11.6082  21.4435   H         1 RES1   0.0000
   100 C24_2    3.3788  12.3947  22.8860   C.ar      1 RES1   0.0000
   101 N25_2    3.5673  13.7641  22.5189   N.am      1 RES1   0.0000
   102 H25_2    4.2428  14.1980  22.8280   H         1 RES1   0.0000
   103 C26_2    2.7109  14.3711  21.7204   C.2       1 RES1   0.0000
   104 O27_2    1.6116  13.8518  21.4667   O.2       1 RES1   0.0000
   105 N28_2    2.2011  15.9070  20.0455   N.ar      1 RES1   0.0000
   106 C29_2    3.0487  15.6441  21.0378   C.ar      1 RES1   0.0000
   107 C30_2    4.1264  16.4898  21.3341   C.ar      1 RES1   0.0000
   108 H30_2    4.7147  16.3342  22.0360   H         1 RES1   0.0000
   109 C31_2    4.2352  17.5634  20.4905   C.ar      1 RES1   0.0000
   110 H31_2    4.9360  18.1550  20.6450   H         1 RES1   0.0000
   111 C32_2    3.4256  17.8220  19.4924   C.ar      1 RES1   0.0000
   112 H32_2    3.5711  18.5560  18.9386   H         1 RES1   0.0000
   113 C33_2    2.3883  17.0113  19.2927   C.ar      1 RES1   0.0000
   114 C34_2    1.3940  17.1997  18.3011   C.2       1 RES1   0.0000
   115 N35_2    0.3087  16.4504  18.1980   N.2       1 RES1   0.0000
   116 C36_2   -0.4883  17.0814  17.1098   C.3       1 RES1   0.0000
   117 H36A_2   -0.5945  16.4679  16.3692   H         1 RES1   0.0000
   118 H36B_2   -1.3675  17.3334  17.4382   H         1 RES1   0.0000
   119 C37_2    0.2631  18.2777  16.6847   C.3       1 RES1   0.0000
   120 H37A_2   -0.2176  19.0884  16.9166   H         1 RES1   0.0000
   121 H37B_2    0.4238  18.2624  15.7317   H         1 RES1   0.0000
   122 O38_2    1.5395  18.1922  17.4382   O.3       1 RES1   0.0000
   123 Eu1      3.0958  21.4335  28.9192   Eu        1 RES1   3.0000
   124 C1_1     4.9474  24.3403  27.5997   C.3       1 RES1   0.0000
   125 H1A_1    5.7988  23.8911  27.4838   H         1 RES1   0.0000
   126 H1B_1    4.9512  24.8201  28.4433   H         1 RES1   0.0000
   127 C2_1     4.6400  25.2847  26.4084   C.3       1 RES1   0.0000
   128 H2A_1    4.4908  26.1874  26.7304   H         1 RES1   0.0000
   129 H2B_1    5.3838  25.2978  25.7902   H         1 RES1   0.0000
   130 O3_1     3.4661  24.7851  25.7709   O.3       1 RES1   0.0000
   131 C4_1     3.1448  23.6896  26.5501   C.2       1 RES1   0.0000
   132 N5_1     3.8064  23.3763  27.5224   N.2       1 RES1   0.0000
   133 N6_1     1.4813  22.1405  27.0800   N.ar      1 RES1   0.0000
   134 C7_1     1.9228  23.0366  26.1154   C.ar      1 RES1   0.0000
   135 C8_1     1.2637  23.1265  24.8951   C.ar      1 RES1   0.0000
   136 H8_1     1.5585  23.7290  24.2512   H         1 RES1   0.0000
   137 C9_1     0.1607  22.3202  24.6395   C.ar      1 RES1   0.0000
   138 H9_1    -0.2796  22.3815  23.8262   H         1 RES1   0.0000
   139 C10_1   -0.2808  21.4240  25.6041   C.ar      1 RES1   0.0000
   140 H10_1   -1.0183  20.8828  25.4360   H         1 RES1   0.0000
   141 C11_1    0.3795  21.3320  26.8244   C.ar      1 RES1   0.0000
   142 C12_1    0.0936  20.4381  27.9410   C.2       1 RES1   0.0000
   143 O13_1    0.8476  20.4030  28.8844   O.2       1 RES1   0.0000
   144 N14_1   -0.9968  19.7194  27.8901   N.am      1 RES1   0.0000
   145 H14_1   -1.5420  19.8662  27.2391   H         1 RES1   0.0000
   146 C15_1   -1.3649  18.6830  28.8535   C.ar      1 RES1   0.0000
   147 C16_1   -0.4124  17.7431  29.2218   C.ar      1 RES1   0.0000
   148 H16_1    0.4579  17.8088  28.9005   H         1 RES1   0.0000
   149 C17_1   -0.7590  16.7001  30.0738   C.ar      1 RES1   0.0000
   150 H17_1   -0.1214  16.0691  30.3172   H         1 RES1   0.0000
   151 C18_1   -2.0582  16.6015  30.5567   C.ar      1 RES1   0.0000
   152 H18_1   -2.2896  15.9026  31.1285   H         1 RES1   0.0000
   153 C19_1   -3.0107  17.5415  30.1884   C.ar      1 RES1   0.0000
   154 C20_1   -2.6641  18.5844  29.3371   C.ar      1 RES1   0.0000
   155 C21_1   -3.6217  19.5595  29.0228   C.ar      1 RES1   0.0000
   156 H21_1   -3.4041  20.2737  28.4690   H         1 RES1   0.0000
   157 C22_1   -4.9031  19.4433  29.5573   C.ar      1 RES1   0.0000
   158 H22_1   -5.5369  20.0984  29.3706   H         1 RES1   0.0000
   159 C23_1   -5.2472  18.3434  30.3687   C.ar      1 RES1   0.0000
   160 H23_1   -6.1112  18.2536  30.7035   H         1 RES1   0.0000
   161 C24_1   -4.2959  17.4144  30.6585   C.ar      1 RES1   0.0000
   162 N25_1   -4.7007  16.3058  31.4827   N.am      1 RES1   0.0000
   163 H25_1   -4.4212  16.2773  32.2941   H         1 RES1   0.0000
   164 C26_1   -5.4762  15.3395  31.0513   C.2       1 RES1   0.0000
   165 O27_1   -5.8595  15.3417  29.8651   O.2       1 RES1   0.0000
   166 N28_1   -6.8196  13.4859  31.3571   N.ar      1 RES1   0.0000
   167 C29_1   -5.9177  14.2768  31.9464   C.ar      1 RES1   0.0000
   168 C30_1   -5.6255  14.1038  33.3051   C.ar      1 RES1   0.0000
   169 H30_1   -5.0802  14.6975  33.7687   H         1 RES1   0.0000
   170 C31_1   -6.1960  12.9973  33.9233   C.ar      1 RES1   0.0000
   171 H31_1   -5.9215  12.7935  34.7926   H         1 RES1   0.0000
   172 C32_1   -7.1030  12.2151  33.3630   C.ar      1 RES1   0.0000
   173 H32_1   -7.5343  11.5380  33.8331   H         1 RES1   0.0000
   174 C33_1   -7.3674  12.4627  32.0558   C.ar      1 RES1   0.0000
   175 C34_1   -8.3161  11.7221  31.3217   C.2       1 RES1   0.0000
   176 N35_1   -8.5919  11.9456  30.0596   N.2       1 RES1   0.0000
   177 C36_1   -9.5697  10.9136  29.7119   C.3       1 RES1   0.0000
   178 H36A_1   -9.2155  10.3439  29.0099   H         1 RES1   0.0000
   179 H36B_1  -10.3856  11.3277  29.3834   H         1 RES1   0.0000
   180 C37_1   -9.8480  10.1248  30.9160   C.3       1 RES1   0.0000
   181 H37A_1   -9.6823   9.1849  30.7615   H         1 RES1   0.0000
   182 H37B_1  -10.7664  10.2431  31.2058   H         1 RES1   0.0000
   183 O38_1   -8.9005  10.6791  31.9161   O.3       1 RES1   0.0000
   184 C1_2     5.1941  23.2733  31.4054   C.3       1 RES1   0.0000
   185 H1A_2    4.5730  23.0651  32.1202   H         1 RES1   0.0000
   186 H1B_2    5.0461  24.1826  31.1028   H         1 RES1   0.0000
   187 C2_2     6.6741  23.0542  31.8562   C.3       1 RES1   0.0000
   188 H2A_2    7.1295  23.9043  31.9657   H         1 RES1   0.0000
   189 H2B_2    6.7146  22.5634  32.6869   H         1 RES1   0.0000
   190 O3_2     7.2624  22.2939  30.7744   O.3       1 RES1   0.0000
   191 C4_2     6.1896  21.8688  30.0338   C.2       1 RES1   0.0000
   192 N5_2     5.0764  22.3158  30.2978   N.2       1 RES1   0.0000
   193 N6_2     5.4256  20.6418  28.2218   N.ar      1 RES1   0.0000
   194 C7_2     6.5299  21.0209  28.8876   C.ar      1 RES1   0.0000
   195 C8_2     7.8000  20.5169  28.5785   C.ar      1 RES1   0.0000
   196 H8_2     8.5451  20.7426  29.0872   H         1 RES1   0.0000
   197 C9_2     7.8936  19.6843  27.5095   C.ar      1 RES1   0.0000
   198 H9_2     8.7348  19.3929  27.2391   H         1 RES1   0.0000
   199 C10_2    6.7741  19.2527  26.8141   C.ar      1 RES1   0.0000
   200 H10_2    6.8500  18.6524  26.1122   H         1 RES1   0.0000
   201 C11_2    5.5420  19.7479  27.2069   C.ar      1 RES1   0.0000
   202 C12_2    4.2390  19.4499  26.6080   C.2       1 RES1   0.0000
   203 O13_2    3.2346  19.9977  27.0272   O.2       1 RES1   0.0000
   204 N14_2    4.1707  18.4552  25.7516   N.am      1 RES1   0.0000
   205 H14_2    4.8842  18.1353  25.3974   H         1 RES1   0.0000
   206 C15_2    2.8235  17.8921  25.3974   C.ar      1 RES1   0.0000
   207 C16_2    2.2631  16.9302  26.1251   C.ar      1 RES1   0.0000
   208 H16_2    2.7299  16.5029  26.8076   H         1 RES1   0.0000
   209 C17_2    0.9336  16.5818  25.8160   C.ar      1 RES1   0.0000
   210 H17_2    0.4959  15.9639  26.3504   H         1 RES1   0.0000
   211 C18_2    0.2720  17.1186  24.7728   C.ar      1 RES1   0.0000
   212 H18_2   -0.6009  16.8513  24.5925   H         1 RES1   0.0000
   213 C19_2    0.9045  18.0915  23.9485   C.ar      1 RES1   0.0000
   214 C20_2    2.1657  18.5187  24.3284   C.ar      1 RES1   0.0000
   215 C21_2    2.8210  19.5091  23.5621   C.ar      1 RES1   0.0000
   216 H21_2    3.6799  19.7961  23.7811   H         1 RES1   0.0000
   217 C22_2    2.1176  20.0524  22.4610   C.ar      1 RES1   0.0000
   218 H22_2    2.5313  20.6944  21.9265   H         1 RES1   0.0000
   219 C23_2    0.7957  19.6383  22.1454   C.ar      1 RES1   0.0000
   220 H23_2    0.3264  20.0393  21.4435   H         1 RES1   0.0000
   221 C24_2    0.2264  18.6392  22.8860   C.ar      1 RES1   0.0000
   222 N25_2   -1.0537  18.1177  22.5189   N.am      1 RES1   0.0000
   223 H25_2   -1.7672  18.4858  22.8280   H         1 RES1   0.0000
   224 C26_2   -1.1511  17.0726  21.7204   C.2       1 RES1   0.0000
   225 O27_2   -0.1518  16.3802  21.4667   O.2       1 RES1   0.0000
   226 N28_2   -2.2264  15.8632  20.0455   N.ar      1 RES1   0.0000
   227 C29_2   -2.4225  16.7286  21.0378   C.ar      1 RES1   0.0000
   228 C30_2   -3.6938  17.2391  21.3341   C.ar      1 RES1   0.0000
   229 H30_2   -3.8532  17.8263  22.0360   H         1 RES1   0.0000
   230 C31_2   -4.6780  16.7965  20.4905   C.ar      1 RES1   0.0000
   231 H31_2   -5.5407  17.1077  20.6450   H         1 RES1   0.0000
   232 C32_2   -4.4971  15.9661  19.4924   C.ar      1 RES1   0.0000
   233 H32_2   -5.2055  15.7251  18.9386   H         1 RES1   0.0000
   234 C33_2   -3.2763  15.4732  19.2927   C.ar      1 RES1   0.0000
   235 C34_2   -2.9424  14.5179  18.3011   C.2       1 RES1   0.0000
   236 N35_2   -1.7508  13.9526  18.1980   N.2       1 RES1   0.0000
   237 C36_2   -1.8988  12.9469  17.1098   C.3       1 RES1   0.0000
   238 H36A_2   -1.3143  13.1616  16.3692   H         1 RES1   0.0000
   239 H36B_2   -1.6774  12.0595  17.4382   H         1 RES1   0.0000
   240 C37_2   -3.3105  12.9995  16.6847   C.3       1 RES1   0.0000
   241 H37A_2   -3.7722  12.1778  16.9166   H         1 RES1   0.0000
   242 H37B_2   -3.3775  13.1463  15.7317   H         1 RES1   0.0000
   243 O38_2   -3.8747  14.1476  17.4382   O.3       1 RES1   0.0000
   244 Eu1     -7.4598  13.8748  28.9192   Eu        1 RES1   3.0000
   245 C1_1   -10.9030  14.0249  27.5997   C.3       1 RES1   0.0000
   246 H1A_1  -10.9397  14.9867  27.4838   H         1 RES1   0.0000
   247 H1B_1  -11.3205  13.7882  28.4433   H         1 RES1   0.0000
   248 C2_1   -11.5672  13.2865  26.4084   C.3       1 RES1   0.0000
   249 H2A_1  -12.2743  12.7059  26.7304   H         1 RES1   0.0000
   250 H2B_1  -11.9505  13.9241  25.7902   H         1 RES1   0.0000
   251 O3_1   -10.5476  12.5196  25.7709   O.3       1 RES1   0.0000
   252 C4_1    -9.4382  12.7891  26.5501   C.2       1 RES1   0.0000
   253 N5_1    -9.4976  13.5187  27.5224   N.2       1 RES1   0.0000
   254 N6_1    -7.2649  12.1230  27.0800   N.ar      1 RES1   0.0000
   255 C7_1    -8.2617  12.0573  26.1154   C.ar      1 RES1   0.0000
   256 C8_1    -8.0100  11.4416  24.8951   C.ar      1 RES1   0.0000
   257 H8_1    -8.6792  11.3956  24.2512   H         1 RES1   0.0000
   258 C9_1    -6.7602  10.8895  24.6395   C.ar      1 RES1   0.0000
   259 H9_1    -6.5932  10.4776  23.8262   H         1 RES1   0.0000
   260 C10_1   -5.7633  10.9552  25.6041   C.ar      1 RES1   0.0000
   261 H10_1   -4.9259  10.5871  25.4360   H         1 RES1   0.0000
   262 C11_1   -6.0138  11.5731  26.8244   C.ar      1 RES1   0.0000
   263 C12_1   -5.0967  11.7725  27.9410   C.2       1 RES1   0.0000
   264 O13_1   -5.4433  12.4429  28.8844   O.2       1 RES1   0.0000
   265 N14_1   -3.9291  11.1875  27.8901   N.am      1 RES1   0.0000
   266 H14_1   -3.7836  10.6419  27.2391   H         1 RES1   0.0000
   267 C15_1   -2.8475  11.3869  28.8535   C.ar      1 RES1   0.0000
   268 C16_1   -2.5098  12.6818  29.2218   C.ar      1 RES1   0.0000
   269 H16_1   -3.0018  13.4026  28.9005   H         1 RES1   0.0000
   270 C17_1   -1.4332  12.9031  30.0738   C.ar      1 RES1   0.0000
   271 H17_1   -1.2055  13.7707  30.3172   H         1 RES1   0.0000
   272 C18_1   -0.6983  11.8273  30.5567   C.ar      1 RES1   0.0000
   273 H18_1    0.0228  11.9762  31.1285   H         1 RES1   0.0000
   274 C19_1   -1.0360  10.5323  30.1884   C.ar      1 RES1   0.0000
   275 C20_1   -2.1125  10.3111  29.3371   C.ar      1 RES1   0.0000
   276 C21_1   -2.4781   8.9942  29.0228   C.ar      1 RES1   0.0000
   277 H21_1   -3.2055   8.8255  28.4690   H         1 RES1   0.0000
   278 C22_1   -1.7368   7.9425  29.5573   C.ar      1 RES1   0.0000
   279 H22_1   -1.9873   7.0661  29.3706   H         1 RES1   0.0000
   280 C23_1   -0.6123   8.1945  30.3687   C.ar      1 RES1   0.0000
   281 H23_1   -0.1025   7.4912  30.7035   H         1 RES1   0.0000
   282 C24_1   -0.2834   9.4828  30.6585   C.ar      1 RES1   0.0000
   283 N25_1    0.8792   9.6866  31.4827   N.am      1 RES1   0.0000
   284 H25_1    0.7641   9.9430  32.2941   H         1 RES1   0.0000
   285 C26_1    2.1037   9.4982  31.0513   C.2       1 RES1   0.0000
   286 O27_1    2.2934   9.1651  29.8651   O.2       1 RES1   0.0000
   287 N28_1    4.3807   9.2615  31.3571   N.ar      1 RES1   0.0000
   288 C29_1    3.2447   9.6472  31.9464   C.ar      1 RES1   0.0000
   289 C30_1    3.2485   9.9868  33.3051   C.ar      1 RES1   0.0000
   290 H30_1    2.4617  10.1621  33.7687   H         1 RES1   0.0000
   291 C31_1    4.4920  10.0459  33.9233   C.ar      1 RES1   0.0000
   292 H31_1    4.5312  10.3855  34.7926   H         1 RES1   0.0000
   293 C32_1    5.6229   9.6516  33.3630   C.ar      1 RES1   0.0000
   294 H32_1    6.4249   9.6165  33.8331   H         1 RES1   0.0000
   295 C33_1    5.5407   9.2988  32.0558   C.ar      1 RES1   0.0000
   296 C34_1    6.6564   8.8474  31.3217   C.2       1 RES1   0.0000
   297 N35_1    6.6008   8.4969  30.0596   N.2       1 RES1   0.0000
   298 C36_1    7.9834   8.1660  29.7119   C.3       1 RES1   0.0000
   299 H36A_1    8.2997   8.7576  29.0099   H         1 RES1   0.0000
   300 H36B_1    8.0328   7.2524  29.3834   H         1 RES1   0.0000
   301 C37_1    8.8057   8.3194  30.9160   C.3       1 RES1   0.0000
   302 H37A_1    9.5368   8.9329  30.7615   H         1 RES1   0.0000
   303 H37B_1    9.1624   7.4649  31.2058   H         1 RES1   0.0000
   304 O38_1    7.8519   8.8628  31.9161   O.3       1 RES1   0.0000
   305 C1_2   -10.1023  14.7720  31.4054   C.3       1 RES1   0.0000
   306 H1A_2   -9.6115  14.3382  32.1202   H         1 RES1   0.0000
   307 H1B_2  -10.8157  14.1892  31.1028   H         1 RES1   0.0000
   308 C2_2   -10.6526  16.1633  31.8562   C.3       1 RES1   0.0000
   309 H2A_2  -11.6165  16.1327  31.9657   H         1 RES1   0.0000
   310 H2B_2  -10.2478  16.4438  32.6869   H         1 RES1   0.0000
   311 O3_2   -10.2882  17.0529  30.7744   O.3       1 RES1   0.0000
   312 C4_2    -9.3838  16.3364  30.0338   C.2       1 RES1   0.0000
   313 N5_2    -9.2143  15.1489  30.2978   N.2       1 RES1   0.0000
   314 N6_2    -7.9391  16.2882  28.2218   N.ar      1 RES1   0.0000
   315 C7_2    -8.8196  17.0551  28.8876   C.ar      1 RES1   0.0000
   316 C8_2    -9.0182  18.4070  28.5785   C.ar      1 RES1   0.0000
   317 H8_2    -9.5862  18.9394  29.0872   H         1 RES1   0.0000
   318 C9_2    -8.3439  18.9043  27.5095   C.ar      1 RES1   0.0000
   319 H9_2    -8.5122  19.7786  27.2391   H         1 RES1   0.0000
   320 C10_2   -7.4104  18.1506  26.8141   C.ar      1 RES1   0.0000
   321 H10_2   -6.9284  18.5165  26.1122   H         1 RES1   0.0000
   322 C11_2   -7.2231  16.8360  27.2069   C.ar      1 RES1   0.0000
   323 C12_2   -6.3136  15.8566  26.6080   C.2       1 RES1   0.0000
   324 O13_2   -6.2858  14.7129  27.0272   O.2       1 RES1   0.0000
   325 N14_2   -5.4180  16.2948  25.7516   N.am      1 RES1   0.0000
   326 H14_2   -5.4977  17.0726  25.3974   H         1 RES1   0.0000
   327 C15_2   -4.2567  15.4096  25.3974   C.ar      1 RES1   0.0000
   328 C16_2   -3.1435  15.4052  26.1251   C.ar      1 RES1   0.0000
   329 H16_2   -3.0069  16.0231  26.8076   H         1 RES1   0.0000
   330 C17_2   -2.1771  14.4280  25.8160   C.ar      1 RES1   0.0000
   331 H17_2   -1.4231  14.3579  26.3504   H         1 RES1   0.0000
   332 C18_2   -2.3112  13.5867  24.7728   C.ar      1 RES1   0.0000
   333 H18_2   -1.6432  12.9644  24.5925   H         1 RES1   0.0000
   334 C19_2   -3.4699  13.6480  23.9485   C.ar      1 RES1   0.0000
   335 C20_2   -4.4705  14.5266  24.3284   C.ar      1 RES1   0.0000
   336 C21_2   -5.6558  14.5989  23.5621   C.ar      1 RES1   0.0000
   337 H21_2   -6.3339  15.1993  23.7811   H         1 RES1   0.0000
   338 C22_2   -5.7747  13.7181  22.4610   C.ar      1 RES1   0.0000
   339 H22_2   -6.5375  13.7554  21.9265   H         1 RES1   0.0000
   340 C23_2   -4.7551  12.7804  22.1454   C.ar      1 RES1   0.0000
   341 H23_2   -4.8677  12.1734  21.4435   H         1 RES1   0.0000
   342 C24_2   -3.6052  12.7869  22.8860   C.ar      1 RES1   0.0000
   343 N25_2   -2.5136  11.9390  22.5189   N.am      1 RES1   0.0000
   344 H25_2   -2.4756  11.1371  22.8280   H         1 RES1   0.0000
   345 C26_2   -1.5597  12.3772  21.7204   C.2       1 RES1   0.0000
   346 O27_2   -1.4598  13.5889  21.4667   O.2       1 RES1   0.0000
   347 N28_2    0.0253  12.0507  20.0455   N.ar      1 RES1   0.0000
   348 C29_2   -0.6262  11.4482  21.0378   C.ar      1 RES1   0.0000
   349 C30_2   -0.4326  10.0919  21.3341   C.ar      1 RES1   0.0000
   350 H30_2   -0.8615   9.6603  22.0360   H         1 RES1   0.0000
   351 C31_2    0.4428   9.4609  20.4905   C.ar      1 RES1   0.0000
   352 H31_2    0.6047   8.5582  20.6450   H         1 RES1   0.0000
   353 C32_2    1.0715  10.0328  19.4924   C.ar      1 RES1   0.0000
   354 H32_2    1.6344   9.5398  18.9386   H         1 RES1   0.0000
   355 C33_2    0.8880  11.3365  19.2927   C.ar      1 RES1   0.0000
   356 C34_2    1.5484  12.1033  18.3011   C.2       1 RES1   0.0000
   357 N35_2    1.4421  13.4180  18.1980   N.2       1 RES1   0.0000
   358 C36_2    2.3871  13.7926  17.1098   C.3       1 RES1   0.0000
   359 H36A_2    1.9089  14.1914  16.3692   H         1 RES1   0.0000
   360 H36B_2    3.0449  14.4280  17.4382   H         1 RES1   0.0000
   361 C37_2    3.0474  12.5437  16.6847   C.3       1 RES1   0.0000
   362 H37A_2    3.9898  12.5547  16.9166   H         1 RES1   0.0000
   363 H37B_2    2.9538  12.4123  15.7317   H         1 RES1   0.0000
   364 O38_2    2.3352  11.4811  17.4382   O.3       1 RES1   0.0000
   365 S1_3     6.2817  15.3811  24.7959   S.o2      2 RES2   0.0000
   366 O1_3     6.0454  14.4631  23.7231   O.2       2 RES2   0.0000
   367 O2_3     6.1808  16.7878  24.5474   O.3       2 RES2  -1.0000
   368 O3_3     5.6153  14.9232  25.9389   O.2       2 RES2   0.0000
   369 C1_3     7.8620  15.1949  25.1462   C.3       2 RES2   0.0000
   370 F1_3     8.7399  15.3702  24.1352   F         2 RES2   0.0000
   371 F2_3     8.2035  14.0249  25.6163   F         2 RES2   0.0000
   372 F3_3     8.3186  16.0472  26.0993   F         2 RES2   0.0000
   373 S1_4     1.9051  18.5757  37.2267   S.o2      3 RES3   0.0000
   374 O1_4     1.0601  19.6887  37.0400   O.2       3 RES3   0.0000
   375 O2_4     3.1397  18.7860  37.9480   O.3       3 RES3  -1.0000
   376 O3_4     2.0114  17.8482  36.0226   O.2       3 RES3   0.0000
   377 C1_4     1.0917  17.5831  38.2249   C.3       3 RES3   0.0000
   378 F1_4     1.7470  16.4482  38.4567   F         3 RES3   0.0000
   379 F2_4    -0.0784  17.1997  37.7162   F         3 RES3   0.0000
   380 F3_4     0.8551  18.1944  39.4033   F         3 RES3   0.0000
   381 S1_5     5.3927   9.7304  12.6794   S.o2      4 RES4   0.0000
   382 O1_5     4.6324  10.0262  11.5460   O.2       4 RES4   0.0000
   383 O2_5     6.7589  10.0678  12.8983   O.2       4 RES4   0.0000
   384 O3_5     5.0992   8.3720  13.1366   O.3       4 RES4  -1.0000
   385 C1_5     4.6033  10.4140  13.9415   C.3       4 RES4   0.0000
   386 F1_5     5.0246   9.8772  15.0813   F         4 RES4   0.0000
   387 F2_5     3.3396   9.9780  13.9480   F         4 RES4   0.0000
   388 F3_5     4.8045  11.7221  13.8642   F         4 RES4   0.0000
   389 S1_6     3.2511   5.2892  24.2112   S.o2      5 RES5   0.0000
   390 O1_6     2.2125   6.1897  23.9485   O.2       5 RES5   0.0000
   391 O2_6     3.8772   5.1511  25.4747   O.2       5 RES5   0.0000
   392 O3_6     2.9348   3.9570  23.6909   O.3       5 RES5  -1.0000
   393 C1_6     4.4427   5.5477  23.1371   C.3       5 RES5   0.0000
   394 F1_6     4.9626   6.7594  23.2466   F         5 RES5   0.0000
   395 F2_6     3.9949   5.4031  21.8943   F         5 RES5   0.0000
   396 F3_6     5.4319   4.6450  23.3110   F         5 RES5   0.0000
   397 S1_7     0.0013  29.2132  30.9096   S.o2      6 RES6   0.0000
   398 O1_7    -0.4200  30.6045  31.0384   O.3       6 RES6  -1.0000
   399 C1_7     0.0013  29.2132  29.2675   C.3       6 RES6   0.0000
   400 F1_7     0.5819  28.2075  28.7330   F         6 RES6   0.0000
   401 O1_7    -0.9943  28.1549  31.0384   O.2       6 RES6   0.0000
   402 F1_7     0.5806  30.2211  28.7330   F         6 RES6   0.0000
   403 O1_7     1.4143  28.8823  31.0384   O.2       6 RES6   0.0000
   404 F1_7    -1.1625  29.2132  28.7330   F         6 RES6   0.0000
   405 O1_8     3.2586  16.7790  34.0134   O.3       7 RES7   0.0000
@<TRIPOS>BOND
     1     1    11    1
     2     1    12    1
     3     1    22    1
     4     1    71    1
     5     1    72    1
     6     1    82    1
     7     1   286    1
     8     1   287    1
     9     1   297    1
    10     2   104    1
    11     2   105    1
    12     2   115    1
    13     2   225    1
    14     2   226    1
    15     2   236    1
    16     2   346    1
    17     2   347    1
    18     2   357    1
    19     3     4    1
    20     3     5    1
    21     3     6    1
    22     3    11    1
    23     6     7    1
    24     6     8    1
    25     6     9    1
    26     9    10    1
    27    10    11    2
    28    10    13    1
    29    12    13   ar
    30    12    20   ar
    31    13    14   ar
    32    14    15    1
    33    14    16   ar
    34    16    17    1
    35    16    18   ar
    36    18    19    1
    37    18    20   ar
    38    20    21    1
    39    21    22    2
    40    21    23   am
    41    23    24    1
    42    23    25    1
    43    25    26   ar
    44    25    33   ar
    45    26    27    1
    46    26    28   ar
    47    28    29    1
    48    28    30   ar
    49    30    31    1
    50    30    32   ar
    51    32    33   ar
    52    32    40   ar
    53    33    34   ar
    54    34    35    1
    55    34    36   ar
    56    36    37    1
    57    36    38   ar
    58    38    39    1
    59    38    40   ar
    60    40    41    1
    61    41    42    1
    62    41    43   am
    63    43    44    2
    64    43    46    1
    65    44   123    1
    66    45    46   ar
    67    45    53   ar
    68    45   123    1
    69    46    47   ar
    70    47    48    1
    71    47    49   ar
    72    49    50    1
    73    49    51   ar
    74    51    52    1
    75    51    53   ar
    76    53    54    1
    77    54    55    2
    78    54    62    1
    79    55    56    1
    80    55   123    1
    81    56    57    1
    82    56    58    1
    83    56    59    1
    84    59    60    1
    85    59    61    1
    86    59    62    1
    87    63    64    1
    88    63    65    1
    89    63    66    1
    90    63    71    1
    91    66    67    1
    92    66    68    1
    93    66    69    1
    94    69    70    1
    95    70    71    2
    96    70    73    1
    97    72    73   ar
    98    72    80   ar
    99    73    74   ar
   100    74    75    1
   101    74    76   ar
   102    76    77    1
   103    76    78   ar
   104    78    79    1
   105    78    80   ar
   106    80    81    1
   107    81    82    2
   108    81    83   am
   109    83    84    1
   110    83    85    1
   111    85    86   ar
   112    85    93   ar
   113    86    87    1
   114    86    88   ar
   115    88    89    1
   116    88    90   ar
   117    90    91    1
   118    90    92   ar
   119    92    93   ar
   120    92   100   ar
   121    93    94   ar
   122    94    95    1
   123    94    96   ar
   124    96    97    1
   125    96    98   ar
   126    98    99    1
   127    98   100   ar
   128   100   101    1
   129   101   102    1
   130   101   103   am
   131   103   104    2
   132   103   106    1
   133   105   106   ar
   134   105   113   ar
   135   106   107   ar
   136   107   108    1
   137   107   109   ar
   138   109   110    1
   139   109   111   ar
   140   111   112    1
   141   111   113   ar
   142   113   114    1
   143   114   115    2
   144   114   122    1
   145   115   116    1
   146   116   117    1
   147   116   118    1
   148   116   119    1
   149   119   120    1
   150   119   121    1
   151   119   122    1
   152   123   132    1
   153   123   133    1
   154   123   143    1
   155   123   192    1
   156   123   193    1
   157   123   203    1
   158   124   125    1
   159   124   126    1
   160   124   127    1
   161   124   132    1
   162   127   128    1
   163   127   129    1
   164   127   130    1
   165   130   131    1
   166   131   132    2
   167   131   134    1
   168   133   134   ar
   169   133   141   ar
   170   134   135   ar
   171   135   136    1
   172   135   137   ar
   173   137   138    1
   174   137   139   ar
   175   139   140    1
   176   139   141   ar
   177   141   142    1
   178   142   143    2
   179   142   144   am
   180   144   145    1
   181   144   146    1
   182   146   147   ar
   183   146   154   ar
   184   147   148    1
   185   147   149   ar
   186   149   150    1
   187   149   151   ar
   188   151   152    1
   189   151   153   ar
   190   153   154   ar
   191   153   161   ar
   192   154   155   ar
   193   155   156    1
   194   155   157   ar
   195   157   158    1
   196   157   159   ar
   197   159   160    1
   198   159   161   ar
   199   161   162    1
   200   162   163    1
   201   162   164   am
   202   164   165    2
   203   164   167    1
   204   165   244    1
   205   166   167   ar
   206   166   174   ar
   207   166   244    1
   208   167   168   ar
   209   168   169    1
   210   168   170   ar
   211   170   171    1
   212   170   172   ar
   213   172   173    1
   214   172   174   ar
   215   174   175    1
   216   175   176    2
   217   175   183    1
   218   176   177    1
   219   176   244    1
   220   177   178    1
   221   177   179    1
   222   177   180    1
   223   180   181    1
   224   180   182    1
   225   180   183    1
   226   184   185    1
   227   184   186    1
   228   184   187    1
   229   184   192    1
   230   187   188    1
   231   187   189    1
   232   187   190    1
   233   190   191    1
   234   191   192    2
   235   191   194    1
   236   193   194   ar
   237   193   201   ar
   238   194   195   ar
   239   195   196    1
   240   195   197   ar
   241   197   198    1
   242   197   199   ar
   243   199   200    1
   244   199   201   ar
   245   201   202    1
   246   202   203    2
   247   202   204   am
   248   204   205    1
   249   204   206    1
   250   206   207   ar
   251   206   214   ar
   252   207   208    1
   253   207   209   ar
   254   209   210    1
   255   209   211   ar
   256   211   212    1
   257   211   213   ar
   258   213   214   ar
   259   213   221   ar
   260   214   215   ar
   261   215   216    1
   262   215   217   ar
   263   217   218    1
   264   217   219   ar
   265   219   220    1
   266   219   221   ar
   267   221   222    1
   268   222   223    1
   269   222   224   am
   270   224   225    2
   271   224   227    1
   272   226   227   ar
   273   226   234   ar
   274   227   228   ar
   275   228   229    1
   276   228   230   ar
   277   230   231    1
   278   230   232   ar
   279   232   233    1
   280   232   234   ar
   281   234   235    1
   282   235   236    2
   283   235   243    1
   284   236   237    1
   285   237   238    1
   286   237   239    1
   287   237   240    1
   288   240   241    1
   289   240   242    1
   290   240   243    1
   291   244   253    1
   292   244   254    1
   293   244   264    1
   294   244   313    1
   295   244   314    1
   296   244   324    1
   297   245   246    1
   298   245   247    1
   299   245   248    1
   300   245   253    1
   301   248   249    1
   302   248   250    1
   303   248   251    1
   304   251   252    1
   305   252   253    2
   306   252   255    1
   307   254   255   ar
   308   254   262   ar
   309   255   256   ar
   310   256   257    1
   311   256   258   ar
   312   258   259    1
   313   258   260   ar
   314   260   261    1
   315   260   262   ar
   316   262   263    1
   317   263   264    2
   318   263   265   am
   319   265   266    1
   320   265   267    1
   321   267   268   ar
   322   267   275   ar
   323   268   269    1
   324   268   270   ar
   325   270   271    1
   326   270   272   ar
   327   272   273    1
   328   272   274   ar
   329   274   275   ar
   330   274   282   ar
   331   275   276   ar
   332   276   277    1
   333   276   278   ar
   334   278   279    1
   335   278   280   ar
   336   280   281    1
   337   280   282   ar
   338   282   283    1
   339   283   284    1
   340   283   285   am
   341   285   286    2
   342   285   288    1
   343   287   288   ar
   344   287   295   ar
   345   288   289   ar
   346   289   290    1
   347   289   291   ar
   348   291   292    1
   349   291   293   ar
   350   293   294    1
   351   293   295   ar
   352   295   296    1
   353   296   297    2
   354   296   304    1
   355   297   298    1
   356   298   299    1
   357   298   300    1
   358   298   301    1
   359   301   302    1
   360   301   303    1
   361   301   304    1
   362   305   306    1
   363   305   307    1
   364   305   308    1
   365   305   313    1
   366   308   309    1
   367   308   310    1
   368   308   311    1
   369   311   312    1
   370   312   313    2
   371   312   315    1
   372   314   315   ar
   373   314   322   ar
   374   315   316   ar
   375   316   317    1
   376   316   318   ar
   377   318   319    1
   378   318   320   ar
   379   320   321    1
   380   320   322   ar
   381   322   323    1
   382   323   324    2
   383   323   325   am
   384   325   326    1
   385   325   327    1
   386   327   328   ar
   387   327   335   ar
   388   328   329    1
   389   328   330   ar
   390   330   331    1
   391   330   332   ar
   392   332   333    1
   393   332   334   ar
   394   334   335   ar
   395   334   342   ar
   396   335   336   ar
   397   336   337    1
   398   336   338   ar
   399   338   339    1
   400   338   340   ar
   401   340   341    1
   402   340   342   ar
   403   342   343    1
   404   343   344    1
   405   343   345   am
   406   345   346    2
   407   345   348    1
   408   347   348   ar
   409   347   355   ar
   410   348   349   ar
   411   349   350    1
   412   349   351   ar
   413   351   352    1
   414   351   353   ar
   415   353   354    1
   416   353   355   ar
   417   355   356    1
   418   356   357    2
   419   356   364    1
   420   357   358    1
   421   358   359    1
   422   358   360    1
   423   358   361    1
   424   361   362    1
   425   361   363    1
   426   361   364    1
   427   365   366    2
   428   365   367    1
   429   365   368    2
   430   365   369    1
   431   369   370    1
   432   369   371    1
   433   369   372    1
   434   373   374    2
   435   373   375    1
   436   373   376    2
   437   373   377    1
   438   377   378    1
   439   377   379    1
   440   377   380    1
   441   381   382    2
   442   381   383    2
   443   381   384    1
   444   381   385    1
   445   385   386    1
   446   385   387    1
   447   385   388    1
   448   389   390    2
   449   389   391    2
   450   389   392    1
   451   389   393    1
   452   393   394    1
   453   393   395    1
   454   393   396    1
   455   397   398    1
   456   397   399    1
   457   397   401    2
   458   397   403    2
   459   399   400    1
   460   399   402    1
   461   399   404    1
@<TRIPOS>SUBSTRUCTURE
     1 RES1        1 GROUP             0 ****  ****    0  
     2 RES2      365 GROUP             0 ****  ****    0  
     3 RES3      373 GROUP             0 ****  ****    0  
     4 RES4      381 GROUP             0 ****  ****    0  
     5 RES5      389 GROUP             0 ****  ****    0  
     6 RES6      397 GROUP             0 ****  ****    0  
     7 RES7      405 GROUP             0 ****  ****    0  
@<TRIPOS>CRYSIN
   25.3000   25.3000   64.3950   90.0000   90.0000  120.0000   233     1
